   Input file: /Users/rowanterra/Desktop/phreeqc3_rrt/manual_examples/output/all_manual_graphics/all_manual_graphics.pqi
  Output file: /Users/rowanterra/Desktop/phreeqc3_rrt/manual_examples/output/all_manual_graphics/all_manual_graphics.pqi.out
Database file: /Users/rowanterra/Desktop/phreeqc3_rrt/database/phreeqc.dat

------------------
Reading data base.
------------------

	SOLUTION_MASTER_SPECIES
	SOLUTION_SPECIES
	PHASES
	GAS_BINARY_PARAMETERS
	EXCHANGE_MASTER_SPECIES
	EXCHANGE_SPECIES
	SURFACE_MASTER_SPECIES
	SURFACE_SPECIES
	MEAN_GAMMAS
	RATES
	END
------------------------------------
Reading input data for simulation 1.
------------------------------------

	DATABASE /Users/rowanterra/Desktop/phreeqc3_rrt/database/phreeqc.dat
	TITLE All manual USER_GRAPH types - PLOT_XY, GRAPH_X/Y/SY, sine, axis options
	SOLUTION 1  Pure water
	        pH      7
	        temp    25
	EQUILIBRIUM_PHASES 1
	        Fluorite        0.0
	REACTION 1
	        Ca(OH)2  1
	        0.0     0.0005   0.001   0.002   0.004   0.006   0.008   0.01    0.015   0.02    0.03    0.05
	USER_GRAPH 1  Plots F and pH against Ca (PLOT_XY style)
	        -headings F pH
	        -axis_titles "Calcium, in milligrams per liter" "Fluoride, in milligrams per liter" "pH"
	        -chart_title "Fluorite Equilibrium in Ca(OH)2 Solutions (Manual Example 1)"
	        -axis_scale x_axis 0 350 50 25
	        -axis_scale y_axis 0 7 1
	        -axis_scale sy_axis 7 14 0 0
	        -initial_solutions false
	        -connect_simulations true
	        -start
	  10 PLOT_XY TOT("Ca")*40.08e3, TOT("F")*19e3, color = Red, symbol = Square, symbol_size = 6, y_axis = 1
	  20 PLOT_XY TOT("Ca")*40.08e3, -LA("H+"), color = Green, symbol = Diamond, symbol_size = 7, y_axis = 2, line_width = 1
	        -end
	END
-----
TITLE
-----

 All manual USER_GRAPH types - PLOT_XY, GRAPH_X/Y/SY, sine, axis options

-------------------------------------------
Beginning of initial solution calculations.
-------------------------------------------

Initial solution 1.	Pure water

-----------------------------Solution composition------------------------------

	Elements           Molality       Moles

	Pure water     

----------------------------Description of solution----------------------------

                                       pH  =   7.000    
                                       pe  =   4.000    
      Specific Conductance (µS/cm,  25°C)  = 0
                          Density (g/cm³)  =   0.99704
                               Volume (L)  =   1.00297
                        Viscosity (mPa s)  =   0.89002
                        Activity of water  =   1.000
                 Ionic strength (mol/kgw)  =   1.007e-07
                       Mass of water (kg)  =   1.000e+00
                 Total alkalinity (eq/kg)  =   1.217e-09
                         Temperature (°C)  =  25.00
                  Electrical balance (eq)  =  -1.217e-09
 Percent error, 100*(Cat-|An|)/(Cat+|An|)  =  -0.60
                               Iterations  =   0
                                  Total H  = 1.110124e+02
                                  Total O  = 5.550622e+01

----------------------------Distribution of species----------------------------

                                               Log       Log       Log    mole V
   Species          Molality    Activity  Molality  Activity     Gamma   cm³/mol

   OH-             1.013e-07   1.012e-07    -6.995    -6.995    -0.000     -4.14
   H+              1.001e-07   1.000e-07    -7.000    -7.000    -0.000      0.00
   H2O             5.551e+01   1.000e+00     1.744     0.000     0.000     18.07
H(0)          1.416e-25
   H2              7.079e-26   7.079e-26   -25.150   -25.150     0.000     14.99
O(0)          0.000e+00
   O2              0.000e+00   0.000e+00   -42.063   -42.063     0.000     30.40

------------------------------Saturation indices-------------------------------

  Phase               SI** log IAP   log K(298 K,   1 atm)

  H2(g)           -22.05    -25.15   -3.10  H2
  H2O(g)           -1.50      0.00    1.50  H2O
  O2(g)           -39.17    -42.06   -2.89  O2

**For a gas, SI = log10(fugacity). Fugacity = pressure * phi / 1 atm.
  For ideal gases, phi = 1.

-----------------------------------------
Beginning of batch-reaction calculations.
-----------------------------------------

Reaction step 1.

Using solution 1.	Pure water
Using pure phase assemblage 1.	
Using reaction 1.	

Reaction 1.	

	  0.000e+00 moles of the following reaction have been added:

	                 Relative
	Reactant            moles

	Ca(OH)2              1.00000

	                 Relative
	Element             moles
	Ca                   1.00000
	H                    2.00000
	O                    2.00000

-------------------------------Phase assemblage--------------------------------

                                                      Moles in assemblage
Phase               SI  log IAP  log K(T, P)   Initial       Final       Delta

Fluorite          0.00   -10.61    -10.61    1.000e+01   1.000e+01  -1.928e-04

-----------------------------Solution composition------------------------------

	Elements           Molality       Moles

	Ca                1.928e-04   1.928e-04
	F                 3.856e-04   3.856e-04

----------------------------Description of solution----------------------------

                                       pH  =   7.094      Charge balance
                                       pe  =  10.706      Adjusted to redox equilibrium
      Specific Conductance (µS/cm,  25°C)  = 42
                          Density (g/cm³)  =   0.99706
                               Volume (L)  =   1.00296
                        Viscosity (mPa s)  =   0.89051
                        Activity of water  =   1.000
                 Ionic strength (mol/kgw)  =   5.785e-04
                       Mass of water (kg)  =   1.000e+00
                 Total alkalinity (eq/kg)  =   1.217e-09
                         Temperature (°C)  =  25.00
                  Electrical balance (eq)  =  -1.217e-09
 Percent error, 100*(Cat-|An|)/(Cat+|An|)  =  -0.00
                               Iterations  =  12
                                  Total H  = 1.110124e+02
                                  Total O  = 5.550622e+01

----------------------------Distribution of species----------------------------

                                               Log       Log       Log    mole V
   Species          Molality    Activity  Molality  Activity     Gamma   cm³/mol

   OH-             1.290e-07   1.255e-07    -6.889    -6.901    -0.012     -4.12
   H+              8.277e-08   8.062e-08    -7.082    -7.094    -0.011      0.00
   H2O             5.551e+01   1.000e+00     1.744    -0.000     0.000     18.07
Ca            1.928e-04
   Ca+2            1.928e-04   1.730e-04    -3.715    -3.762    -0.047    -18.17
   CaOH+           3.660e-10   3.561e-10    -9.437    -9.448    -0.012     (0)  
F             3.856e-04
   F-              3.856e-04   3.751e-04    -3.414    -3.426    -0.012     -1.59
   HF              4.535e-08   4.536e-08    -7.343    -7.343     0.000     12.50
   HF2-            6.710e-11   6.529e-11   -10.173   -10.185    -0.012     22.05
H(0)          3.556e-39
   H2              1.778e-39   1.778e-39   -38.750   -38.750     0.000     14.99
O(0)          2.744e-15
   O2              1.372e-15   1.372e-15   -14.863   -14.863     0.000     30.40

------------------------------Saturation indices-------------------------------

  Phase               SI** log IAP   log K(298 K,   1 atm)

  Fluorite          0.00    -10.61  -10.61  CaF2
  H2(g)           -35.65    -38.75   -3.10  H2
  H2O(g)           -1.50     -0.00    1.50  H2O
  O2(g)           -11.97    -14.86   -2.89  O2

**For a gas, SI = log10(fugacity). Fugacity = pressure * phi / 1 atm.
  For ideal gases, phi = 1.

Reaction step 2.

Using solution 1.	Pure water
Using pure phase assemblage 1.	
Using reaction 1.	

Reaction 1.	

	  5.000e-04 moles of the following reaction have been added:

	                 Relative
	Reactant            moles

	Ca(OH)2              1.00000

	                 Relative
	Element             moles
	Ca                   1.00000
	H                    2.00000
	O                    2.00000

-------------------------------Phase assemblage--------------------------------

                                                      Moles in assemblage
Phase               SI  log IAP  log K(T, P)   Initial       Final       Delta

Fluorite          0.00   -10.61    -10.61    1.000e+01   1.000e+01  -1.153e-04

-----------------------------Solution composition------------------------------

	Elements           Molality       Moles

	Ca                6.153e-04   6.153e-04
	F                 2.307e-04   2.307e-04

----------------------------Description of solution----------------------------

                                       pH  =  10.970      Charge balance
                                       pe  =  -5.193      Adjusted to redox equilibrium
      Specific Conductance (µS/cm,  25°C)  = 270
                          Density (g/cm³)  =   0.99710
                               Volume (L)  =   1.00295
                        Viscosity (mPa s)  =   0.89080
                        Activity of water  =   1.000
                 Ionic strength (mol/kgw)  =   1.830e-03
                       Mass of water (kg)  =   1.000e+00
                 Total alkalinity (eq/kg)  =   1.000e-03
                         Temperature (°C)  =  25.00
                  Electrical balance (eq)  =  -1.206e-09
 Percent error, 100*(Cat-|An|)/(Cat+|An|)  =  -0.00
                               Iterations  =  14
                                  Total H  = 1.110134e+02
                                  Total O  = 5.550722e+01

----------------------------Distribution of species----------------------------

                                               Log       Log       Log    mole V
   Species          Molality    Activity  Molality  Activity     Gamma   cm³/mol

   OH-             9.918e-04   9.454e-04    -3.004    -3.024    -0.021     -4.10
   H+              1.119e-11   1.071e-11   -10.951   -10.970    -0.019      0.00
   H2O             5.551e+01   1.000e+00     1.744    -0.000     0.000     18.07
Ca            6.153e-04
   Ca+2            6.071e-04   5.036e-04    -3.217    -3.298    -0.081    -18.10
   CaOH+           8.186e-06   7.806e-06    -5.087    -5.108    -0.021     (0)  
F             2.307e-04
   F-              2.307e-04   2.199e-04    -3.637    -3.658    -0.021     -1.58
   HF              3.529e-12   3.530e-12   -11.452   -11.452     0.000     12.50
   HF2-            3.123e-15   2.978e-15   -14.505   -14.526    -0.021     22.07
H(0)          3.948e-15
   H2              1.974e-15   1.975e-15   -14.705   -14.704     0.000     14.99
O(0)          0.000e+00
   O2              0.000e+00   0.000e+00   -62.954   -62.954     0.000     30.40

------------------------------Saturation indices-------------------------------

  Phase               SI** log IAP   log K(298 K,   1 atm)

  Fluorite          0.00    -10.61  -10.61  CaF2
  H2(g)           -11.61    -14.70   -3.10  H2
  H2O(g)           -1.50     -0.00    1.50  H2O
  O2(g)           -60.06    -62.95   -2.89  O2

**For a gas, SI = log10(fugacity). Fugacity = pressure * phi / 1 atm.
  For ideal gases, phi = 1.

Reaction step 3.

Using solution 1.	Pure water
Using pure phase assemblage 1.	
Using reaction 1.	

Reaction 1.	

	  1.000e-03 moles of the following reaction have been added:

	                 Relative
	Reactant            moles

	Ca(OH)2              1.00000

	                 Relative
	Element             moles
	Ca                   1.00000
	H                    2.00000
	O                    2.00000

-------------------------------Phase assemblage--------------------------------

                                                      Moles in assemblage
Phase               SI  log IAP  log K(T, P)   Initial       Final       Delta

Fluorite          0.00   -10.61    -10.61    1.000e+01   1.000e+01  -9.090e-05

-----------------------------Solution composition------------------------------

	Elements           Molality       Moles

	Ca                1.091e-03   1.091e-03
	F                 1.818e-04   1.818e-04

----------------------------Description of solution----------------------------

                                       pH  =  11.263      Charge balance
                                       pe  =   6.647      Adjusted to redox equilibrium
      Specific Conductance (µS/cm,  25°C)  = 503
                          Density (g/cm³)  =   0.99715
                               Volume (L)  =   1.00294
                        Viscosity (mPa s)  =   0.89114
                        Activity of water  =   1.000
                 Ionic strength (mol/kgw)  =   3.219e-03
                       Mass of water (kg)  =   1.000e+00
                 Total alkalinity (eq/kg)  =   2.000e-03
                         Temperature (°C)  =  25.00
                  Electrical balance (eq)  =  -1.217e-09
 Percent error, 100*(Cat-|An|)/(Cat+|An|)  =  -0.00
                               Iterations  =  15
                                  Total H  = 1.110144e+02
                                  Total O  = 5.550822e+01

----------------------------Distribution of species----------------------------

                                               Log       Log       Log    mole V
   Species          Molality    Activity  Molality  Activity     Gamma   cm³/mol

   OH-             1.973e-03   1.853e-03    -2.705    -2.732    -0.027     -4.08
   H+              5.781e-12   5.461e-12   -11.238   -11.263    -0.025      0.00
   H2O             5.551e+01   9.999e-01     1.744    -0.000     0.000     18.07
Ca            1.091e-03
   Ca+2            1.064e-03   8.348e-04    -2.973    -3.078    -0.105    -18.06
   CaOH+           2.699e-05   2.537e-05    -4.569    -4.596    -0.027     (0)  
F             1.818e-04
   F-              1.818e-04   1.708e-04    -3.740    -3.768    -0.027     -1.56
   HF              1.398e-12   1.399e-12   -11.855   -11.854     0.000     12.50
   HF2-            9.750e-16   9.164e-16   -15.011   -15.038    -0.027     22.08
H(0)          2.146e-39
   H2              1.073e-39   1.074e-39   -38.969   -38.969     0.000     14.99
O(0)          7.520e-15
   O2              3.760e-15   3.763e-15   -14.425   -14.425     0.000     30.40

------------------------------Saturation indices-------------------------------

  Phase               SI** log IAP   log K(298 K,   1 atm)

  Fluorite          0.00    -10.61  -10.61  CaF2
  H2(g)           -35.87    -38.97   -3.10  H2
  H2O(g)           -1.50     -0.00    1.50  H2O
  O2(g)           -11.53    -14.42   -2.89  O2

**For a gas, SI = log10(fugacity). Fugacity = pressure * phi / 1 atm.
  For ideal gases, phi = 1.

Reaction step 4.

Using solution 1.	Pure water
Using pure phase assemblage 1.	
Using reaction 1.	

Reaction 1.	

	  2.000e-03 moles of the following reaction have been added:

	                 Relative
	Reactant            moles

	Ca(OH)2              1.00000

	                 Relative
	Element             moles
	Ca                   1.00000
	H                    2.00000
	O                    2.00000

-------------------------------Phase assemblage--------------------------------

                                                      Moles in assemblage
Phase               SI  log IAP  log K(T, P)   Initial       Final       Delta

Fluorite          0.00   -10.61    -10.61    1.000e+01   1.000e+01  -7.080e-05

-----------------------------Solution composition------------------------------

	Elements           Molality       Moles

	Ca                2.071e-03   2.071e-03
	F                 1.416e-04   1.416e-04

----------------------------Description of solution----------------------------

                                       pH  =  11.550      Charge balance
                                       pe  =  -5.767      Adjusted to redox equilibrium
      Specific Conductance (µS/cm,  25°C)  = 959
                          Density (g/cm³)  =   0.99725
                               Volume (L)  =   1.00291
                        Viscosity (mPa s)  =   0.89180
                        Activity of water  =   1.000
                 Ionic strength (mol/kgw)  =   6.029e-03
                       Mass of water (kg)  =   1.000e+00
                 Total alkalinity (eq/kg)  =   4.000e-03
                         Temperature (°C)  =  25.00
                  Electrical balance (eq)  =  -1.217e-09
 Percent error, 100*(Cat-|An|)/(Cat+|An|)  =  -0.00
                               Iterations  =  15
                                  Total H  = 1.110164e+02
                                  Total O  = 5.551022e+01

----------------------------Distribution of species----------------------------

                                               Log       Log       Log    mole V
   Species          Molality    Activity  Molality  Activity     Gamma   cm³/mol

   OH-             3.908e-03   3.594e-03    -2.408    -2.444    -0.036     -4.06
   H+              3.032e-12   2.816e-12   -11.518   -11.550    -0.032      0.00
   H2O             5.551e+01   9.999e-01     1.744    -0.000     0.000     18.07
Ca            2.071e-03
   Ca+2            1.979e-03   1.435e-03    -2.704    -2.843    -0.139    -17.99
   CaOH+           9.186e-05   8.459e-05    -4.037    -4.073    -0.036     (0)  
F             1.416e-04
   F-              1.416e-04   1.302e-04    -3.849    -3.885    -0.036     -1.54
   HF              5.492e-13   5.500e-13   -12.260   -12.260     0.001     12.50
   HF2-            2.985e-16   2.748e-16   -15.525   -15.561    -0.036     22.10
H(0)          3.834e-15
   H2              1.917e-15   1.920e-15   -14.717   -14.717     0.001     14.99
O(0)          0.000e+00
   O2              0.000e+00   0.000e+00   -62.930   -62.929     0.001     30.40

------------------------------Saturation indices-------------------------------

  Phase               SI** log IAP   log K(298 K,   1 atm)

  Fluorite          0.00    -10.61  -10.61  CaF2
  H2(g)           -11.62    -14.72   -3.10  H2
  H2O(g)           -1.50     -0.00    1.50  H2O
  O2(g)           -60.04    -62.93   -2.89  O2

**For a gas, SI = log10(fugacity). Fugacity = pressure * phi / 1 atm.
  For ideal gases, phi = 1.

Reaction step 5.

Using solution 1.	Pure water
Using pure phase assemblage 1.	
Using reaction 1.	

Reaction 1.	

	  4.000e-03 moles of the following reaction have been added:

	                 Relative
	Reactant            moles

	Ca(OH)2              1.00000

	                 Relative
	Element             moles
	Ca                   1.00000
	H                    2.00000
	O                    2.00000

-------------------------------Phase assemblage--------------------------------

                                                      Moles in assemblage
Phase               SI  log IAP  log K(T, P)   Initial       Final       Delta

Fluorite          0.00   -10.61    -10.61    1.000e+01   1.000e+01  -5.576e-05

-----------------------------Solution composition------------------------------

	Elements           Molality       Moles

	Ca                4.056e-03   4.056e-03
	F                 1.115e-04   1.115e-04

----------------------------Description of solution----------------------------

                                       pH  =  11.832      Charge balance
                                       pe  =   6.079      Adjusted to redox equilibrium
      Specific Conductance (µS/cm,  25°C)  = 1829
                          Density (g/cm³)  =   0.99744
                               Volume (L)  =   1.00287
                        Viscosity (mPa s)  =   0.89304
                        Activity of water  =   1.000
                 Ionic strength (mol/kgw)  =   1.155e-02
                       Mass of water (kg)  =   1.000e+00
                 Total alkalinity (eq/kg)  =   8.000e-03
                         Temperature (°C)  =  25.00
                  Electrical balance (eq)  =  -1.217e-09
 Percent error, 100*(Cat-|An|)/(Cat+|An|)  =  -0.00
                               Iterations  =  15
                                  Total H  = 1.110204e+02
                                  Total O  = 5.551422e+01

----------------------------Distribution of species----------------------------

                                               Log       Log       Log    mole V
   Species          Molality    Activity  Molality  Activity     Gamma   cm³/mol

   OH-             7.692e-03   6.874e-03    -2.114    -2.163    -0.049     -4.02
   H+              1.620e-12   1.472e-12   -11.790   -11.832    -0.042      0.00
   H2O             5.551e+01   9.998e-01     1.744    -0.000     0.000     18.07
Ca            4.056e-03
   Ca+2            3.747e-03   2.451e-03    -2.426    -2.611    -0.184    -17.91
   CaOH+           3.083e-04   2.762e-04    -3.511    -3.559    -0.048     (0)  
F             1.115e-04
   F-              1.115e-04   9.967e-05    -3.953    -4.001    -0.049     -1.51
   HF              2.195e-13   2.200e-13   -12.659   -12.658     0.001     12.50
   HF2-            9.392e-17   8.415e-17   -16.027   -16.075    -0.048     22.13
H(0)          2.124e-39
   H2              1.062e-39   1.065e-39   -38.974   -38.973     0.001     14.99
O(0)          7.632e-15
   O2              3.816e-15   3.826e-15   -14.418   -14.417     0.001     30.40

------------------------------Saturation indices-------------------------------

  Phase               SI** log IAP   log K(298 K,   1 atm)

  Fluorite          0.00    -10.61  -10.61  CaF2
  H2(g)           -35.87    -38.97   -3.10  H2
  H2O(g)           -1.50     -0.00    1.50  H2O
  O2(g)           -11.52    -14.42   -2.89  O2

**For a gas, SI = log10(fugacity). Fugacity = pressure * phi / 1 atm.
  For ideal gases, phi = 1.

Reaction step 6.

Using solution 1.	Pure water
Using pure phase assemblage 1.	
Using reaction 1.	

Reaction 1.	

	  6.000e-03 moles of the following reaction have been added:

	                 Relative
	Reactant            moles

	Ca(OH)2              1.00000

	                 Relative
	Element             moles
	Ca                   1.00000
	H                    2.00000
	O                    2.00000

-------------------------------Phase assemblage--------------------------------

                                                      Moles in assemblage
Phase               SI  log IAP  log K(T, P)   Initial       Final       Delta

Fluorite          0.00   -10.61    -10.61    1.000e+01   1.000e+01  -4.900e-05

-----------------------------Solution composition------------------------------

	Elements           Molality       Moles

	Ca                6.049e-03   6.049e-03
	F                 9.801e-05   9.801e-05

----------------------------Description of solution----------------------------

                                       pH  =  11.994      Charge balance
                                       pe  =   5.816      Adjusted to redox equilibrium
      Specific Conductance (µS/cm,  25°C)  = 2657
                          Density (g/cm³)  =   0.99763
                               Volume (L)  =   1.00282
                        Viscosity (mPa s)  =   0.89418
                        Activity of water  =   1.000
                 Ionic strength (mol/kgw)  =   1.692e-02
                       Mass of water (kg)  =   1.000e+00
                 Total alkalinity (eq/kg)  =   1.200e-02
                         Temperature (°C)  =  25.00
                  Electrical balance (eq)  =  -1.217e-09
 Percent error, 100*(Cat-|An|)/(Cat+|An|)  =  -0.00
                               Iterations  =  15
                                  Total H  = 1.110244e+02
                                  Total O  = 5.551822e+01

----------------------------Distribution of species----------------------------

                                               Log       Log       Log    mole V
   Species          Molality    Activity  Molality  Activity     Gamma   cm³/mol

   OH-             1.139e-02   9.969e-03    -1.944    -2.001    -0.058     -4.00
   H+              1.133e-12   1.015e-12   -11.946   -11.994    -0.048      0.00
   H2O             5.551e+01   9.997e-01     1.744    -0.000     0.000     18.07
Ca            6.049e-03
   Ca+2            5.434e-03   3.306e-03    -2.265    -2.481    -0.216    -17.84
   CaOH+           6.149e-04   5.403e-04    -3.211    -3.267    -0.056     (0)  
F             9.801e-05
   F-              9.801e-05   8.581e-05    -4.009    -4.066    -0.058     -1.48
   HF              1.301e-13   1.306e-13   -12.886   -12.884     0.002     12.50
   HF2-            4.895e-17   4.301e-17   -16.310   -16.366    -0.056     22.15
H(0)          3.398e-39
   H2              1.699e-39   1.706e-39   -38.770   -38.768     0.002     14.99
O(0)          2.969e-15
   O2              1.485e-15   1.490e-15   -14.828   -14.827     0.002     30.40

------------------------------Saturation indices-------------------------------

  Phase               SI** log IAP   log K(298 K,   1 atm)

  Fluorite          0.00    -10.61  -10.61  CaF2
  H2(g)           -35.67    -38.77   -3.10  H2
  H2O(g)           -1.50     -0.00    1.50  H2O
  O2(g)           -11.93    -14.83   -2.89  O2

**For a gas, SI = log10(fugacity). Fugacity = pressure * phi / 1 atm.
  For ideal gases, phi = 1.

Reaction step 7.

Using solution 1.	Pure water
Using pure phase assemblage 1.	
Using reaction 1.	

Reaction 1.	

	  8.000e-03 moles of the following reaction have been added:

	                 Relative
	Reactant            moles

	Ca(OH)2              1.00000

	                 Relative
	Element             moles
	Ca                   1.00000
	H                    2.00000
	O                    2.00000

-------------------------------Phase assemblage--------------------------------

                                                      Moles in assemblage
Phase               SI  log IAP  log K(T, P)   Initial       Final       Delta

Fluorite          0.00   -10.61    -10.61    1.000e+01   1.000e+01  -4.498e-05

-----------------------------Solution composition------------------------------

	Elements           Molality       Moles

	Ca                8.045e-03   8.045e-03
	F                 8.995e-05   8.995e-05

----------------------------Description of solution----------------------------

                                       pH  =  12.106      Charge balance
                                       pe  =  -6.297      Adjusted to redox equilibrium
      Specific Conductance (µS/cm,  25°C)  = 3452
                          Density (g/cm³)  =   0.99782
                               Volume (L)  =   1.00278
                        Viscosity (mPa s)  =   0.89527
                        Activity of water  =   1.000
                 Ionic strength (mol/kgw)  =   2.215e-02
                       Mass of water (kg)  =   1.000e+00
                 Total alkalinity (eq/kg)  =   1.600e-02
                         Temperature (°C)  =  25.00
                  Electrical balance (eq)  =  -1.217e-09
 Percent error, 100*(Cat-|An|)/(Cat+|An|)  =  -0.00
                               Iterations  =  15
                                  Total H  = 1.110284e+02
                                  Total O  = 5.552222e+01

----------------------------Distribution of species----------------------------

                                               Log       Log       Log    mole V
   Species          Molality    Activity  Molality  Activity     Gamma   cm³/mol

   OH-             1.501e-02   1.293e-02    -1.824    -1.889    -0.065     -3.97
   H+              8.837e-13   7.827e-13   -12.054   -12.106    -0.053      0.00
   H2O             5.551e+01   9.996e-01     1.744    -0.000     0.000     18.07
Ca            8.045e-03
   Ca+2            7.052e-03   4.055e-03    -2.152    -2.392    -0.240    -17.80
   CaOH+           9.929e-04   8.595e-04    -3.003    -3.066    -0.063     (0)  
F             8.995e-05
   F-              8.995e-05   7.748e-05    -4.046    -4.111    -0.065     -1.46
   HF              9.049e-14   9.095e-14   -13.043   -13.041     0.002     12.50
   HF2-            3.124e-17   2.704e-17   -16.505   -16.568    -0.063     22.17
H(0)          3.388e-15
   H2              1.694e-15   1.703e-15   -14.771   -14.769     0.002     14.99
O(0)          0.000e+00
   O2              0.000e+00   0.000e+00   -62.828   -62.825     0.002     30.40

------------------------------Saturation indices-------------------------------

  Phase               SI** log IAP   log K(298 K,   1 atm)

  Fluorite          0.00    -10.61  -10.61  CaF2
  H2(g)           -11.67    -14.77   -3.10  H2
  H2O(g)           -1.50     -0.00    1.50  H2O
  O2(g)           -59.93    -62.83   -2.89  O2

**For a gas, SI = log10(fugacity). Fugacity = pressure * phi / 1 atm.
  For ideal gases, phi = 1.

Reaction step 8.

Using solution 1.	Pure water
Using pure phase assemblage 1.	
Using reaction 1.	

Reaction 1.	

	  1.000e-02 moles of the following reaction have been added:

	                 Relative
	Reactant            moles

	Ca(OH)2              1.00000

	                 Relative
	Element             moles
	Ca                   1.00000
	H                    2.00000
	O                    2.00000

-------------------------------Phase assemblage--------------------------------

                                                      Moles in assemblage
Phase               SI  log IAP  log K(T, P)   Initial       Final       Delta

Fluorite          0.00   -10.61    -10.61    1.000e+01   1.000e+01  -4.223e-05

-----------------------------Solution composition------------------------------

	Elements           Molality       Moles

	Ca                1.004e-02   1.004e-02
	F                 8.447e-05   8.447e-05

----------------------------Description of solution----------------------------

                                       pH  =  12.193      Charge balance
                                       pe  =   5.722      Adjusted to redox equilibrium
      Specific Conductance (µS/cm,  25°C)  = 4220
                          Density (g/cm³)  =   0.99801
                               Volume (L)  =   1.00274
                        Viscosity (mPa s)  =   0.89631
                        Activity of water  =   1.000
                 Ionic strength (mol/kgw)  =   2.727e-02
                       Mass of water (kg)  =   1.000e+00
                 Total alkalinity (eq/kg)  =   2.000e-02
                         Temperature (°C)  =  25.00
                  Electrical balance (eq)  =  -1.217e-09
 Percent error, 100*(Cat-|An|)/(Cat+|An|)  =  -0.00
                               Iterations  =  16
                                  Total H  = 1.110324e+02
                                  Total O  = 5.552622e+01

----------------------------Distribution of species----------------------------

                                               Log       Log       Log    mole V
   Species          Molality    Activity  Molality  Activity     Gamma   cm³/mol

   OH-             1.857e-02   1.578e-02    -1.731    -1.802    -0.071     -3.95
   H+              7.305e-13   6.412e-13   -12.136   -12.193    -0.057      0.00
   H2O             5.551e+01   9.995e-01     1.744    -0.000     0.000     18.07
Ca            1.004e-02
   Ca+2            8.612e-03   4.727e-03    -2.065    -2.325    -0.260    -17.76
   CaOH+           1.430e-03   1.223e-03    -2.845    -2.913    -0.068     (0)  
F             8.447e-05
   F-              8.447e-05   7.176e-05    -4.073    -4.144    -0.071     -1.44
   HF              6.858e-14   6.901e-14   -13.164   -13.161     0.003     12.50
   HF2-            2.223e-17   1.900e-17   -16.653   -16.721    -0.068     22.19
H(0)          2.080e-39
   H2              1.040e-39   1.047e-39   -38.983   -38.980     0.003     14.99
O(0)          7.860e-15
   O2              3.930e-15   3.955e-15   -14.406   -14.403     0.003     30.40

------------------------------Saturation indices-------------------------------

  Phase               SI** log IAP   log K(298 K,   1 atm)

  Fluorite          0.00    -10.61  -10.61  CaF2
  H2(g)           -35.88    -38.98   -3.10  H2
  H2O(g)           -1.50     -0.00    1.50  H2O
  O2(g)           -11.51    -14.40   -2.89  O2

**For a gas, SI = log10(fugacity). Fugacity = pressure * phi / 1 atm.
  For ideal gases, phi = 1.

Reaction step 9.

Using solution 1.	Pure water
Using pure phase assemblage 1.	
Using reaction 1.	

Reaction 1.	

	  1.500e-02 moles of the following reaction have been added:

	                 Relative
	Reactant            moles

	Ca(OH)2              1.00000

	                 Relative
	Element             moles
	Ca                   1.00000
	H                    2.00000
	O                    2.00000

-------------------------------Phase assemblage--------------------------------

                                                      Moles in assemblage
Phase               SI  log IAP  log K(T, P)   Initial       Final       Delta

Fluorite          0.00   -10.61    -10.61    1.000e+01   1.000e+01  -3.798e-05

-----------------------------Solution composition------------------------------

	Elements           Molality       Moles

	Ca                1.504e-02   1.504e-02
	F                 7.596e-05   7.596e-05

----------------------------Description of solution----------------------------

                                       pH  =  12.348      Charge balance
                                       pe  =   5.474      Adjusted to redox equilibrium
      Specific Conductance (µS/cm,  25°C)  = 6049
                          Density (g/cm³)  =   0.99848
                               Volume (L)  =   1.00264
                        Viscosity (mPa s)  =   0.89877
                        Activity of water  =   0.999
                 Ionic strength (mol/kgw)  =   3.965e-02
                       Mass of water (kg)  =   1.000e+00
                 Total alkalinity (eq/kg)  =   3.000e-02
                         Temperature (°C)  =  25.00
                  Electrical balance (eq)  =  -1.151e-09
 Percent error, 100*(Cat-|An|)/(Cat+|An|)  =  -0.00
                               Iterations  =  15
                                  Total H  = 1.110424e+02
                                  Total O  = 5.553622e+01

----------------------------Distribution of species----------------------------

                                               Log       Log       Log    mole V
   Species          Molality    Activity  Molality  Activity     Gamma   cm³/mol

   OH-             2.727e-02   2.254e-02    -1.564    -1.647    -0.083     -3.91
   H+              5.198e-13   4.487e-13   -12.284   -12.348    -0.064      0.00
   H2O             5.551e+01   9.993e-01     1.744    -0.000     0.000     18.07
Ca            1.504e-02
   Ca+2            1.230e-02   6.173e-03    -1.910    -2.210    -0.300    -17.67
   CaOH+           2.734e-03   2.281e-03    -2.563    -2.642    -0.079     (0)  
F             7.596e-05
   F-              7.596e-05   6.280e-05    -4.119    -4.202    -0.083     -1.39
   HF              4.188e-14   4.226e-14   -13.378   -13.374     0.004     12.50
   HF2-            1.220e-17   1.018e-17   -16.914   -16.992    -0.079     22.22
H(0)          3.188e-39
   H2              1.594e-39   1.609e-39   -38.798   -38.793     0.004     14.99
O(0)          3.316e-15
   O2              1.658e-15   1.673e-15   -14.780   -14.776     0.004     30.40

------------------------------Saturation indices-------------------------------

  Phase               SI** log IAP   log K(298 K,   1 atm)

  Fluorite          0.00    -10.61  -10.61  CaF2
  H2(g)           -35.69    -38.79   -3.10  H2
  H2O(g)           -1.50     -0.00    1.50  H2O
  O2(g)           -11.88    -14.78   -2.89  O2

**For a gas, SI = log10(fugacity). Fugacity = pressure * phi / 1 atm.
  For ideal gases, phi = 1.

Reaction step 10.

Using solution 1.	Pure water
Using pure phase assemblage 1.	
Using reaction 1.	

Reaction 1.	

	  2.000e-02 moles of the following reaction have been added:

	                 Relative
	Reactant            moles

	Ca(OH)2              1.00000

	                 Relative
	Element             moles
	Ca                   1.00000
	H                    2.00000
	O                    2.00000

-------------------------------Phase assemblage--------------------------------

                                                      Moles in assemblage
Phase               SI  log IAP  log K(T, P)   Initial       Final       Delta

Fluorite          0.00   -10.61    -10.61    1.000e+01   1.000e+01  -3.545e-05

-----------------------------Solution composition------------------------------

	Elements           Molality       Moles

	Ca                2.004e-02   2.004e-02
	F                 7.091e-05   7.091e-05

----------------------------Description of solution----------------------------

                                       pH  =  12.456      Charge balance
                                       pe  =  -6.581      Adjusted to redox equilibrium
      Specific Conductance (µS/cm,  25°C)  = 7775
                          Density (g/cm³)  =   0.99894
                               Volume (L)  =   1.00255
                        Viscosity (mPa s)  =   0.90107
                        Activity of water  =   0.999
                 Ionic strength (mol/kgw)  =   5.155e-02
                       Mass of water (kg)  =   1.000e+00
                 Total alkalinity (eq/kg)  =   4.000e-02
                         Temperature (°C)  =  25.00
                  Electrical balance (eq)  =  -8.861e-10
 Percent error, 100*(Cat-|An|)/(Cat+|An|)  =  -0.00
                               Iterations  =  15
                                  Total H  = 1.110524e+02
                                  Total O  = 5.554622e+01

----------------------------Distribution of species----------------------------

                                               Log       Log       Log    mole V
   Species          Molality    Activity  Molality  Activity     Gamma   cm³/mol

   OH-             3.572e-02   2.892e-02    -1.447    -1.539    -0.092     -3.87
   H+              4.102e-13   3.497e-13   -12.387   -12.456    -0.069      0.00
   H2O             5.551e+01   9.991e-01     1.744    -0.000     0.000     18.07
Ca            2.004e-02
   Ca+2            1.576e-02   7.390e-03    -1.802    -2.131    -0.329    -17.61
   CaOH+           4.276e-03   3.504e-03    -2.369    -2.455    -0.086     (0)  
F             7.091e-05
   F-              7.091e-05   5.739e-05    -4.149    -4.241    -0.092     -1.35
   HF              2.975e-14   3.010e-14   -13.527   -13.521     0.005     12.50
   HF2-            8.090e-18   6.629e-18   -17.092   -17.179    -0.086     22.25
H(0)          2.484e-15
   H2              1.242e-15   1.258e-15   -14.906   -14.900     0.005     14.99
O(0)          0.000e+00
   O2              0.000e+00   0.000e+00   -62.568   -62.562     0.005     30.40

------------------------------Saturation indices-------------------------------

  Phase               SI** log IAP   log K(298 K,   1 atm)

  Fluorite          0.00    -10.61  -10.61  CaF2
  H2(g)           -11.80    -14.90   -3.10  H2
  H2O(g)           -1.50     -0.00    1.50  H2O
  O2(g)           -59.67    -62.56   -2.89  O2

**For a gas, SI = log10(fugacity). Fugacity = pressure * phi / 1 atm.
  For ideal gases, phi = 1.

Reaction step 11.

Using solution 1.	Pure water
Using pure phase assemblage 1.	
Using reaction 1.	

Reaction 1.	

	  3.000e-02 moles of the following reaction have been added:

	                 Relative
	Reactant            moles

	Ca(OH)2              1.00000

	                 Relative
	Element             moles
	Ca                   1.00000
	H                    2.00000
	O                    2.00000

-------------------------------Phase assemblage--------------------------------

                                                      Moles in assemblage
Phase               SI  log IAP  log K(T, P)   Initial       Final       Delta

Fluorite         -0.00   -10.61    -10.61    1.000e+01   1.000e+01  -3.246e-05

-----------------------------Solution composition------------------------------

	Elements           Molality       Moles

	Ca                3.003e-02   3.003e-02
	F                 6.492e-05   6.492e-05

----------------------------Description of solution----------------------------

                                       pH  =  12.606      Charge balance
                                       pe  =   5.233      Adjusted to redox equilibrium
      Specific Conductance (µS/cm,  25°C)  = 11007
                          Density (g/cm³)  =   0.99985
                               Volume (L)  =   1.00238
                        Viscosity (mPa s)  =   0.90535
                        Activity of water  =   0.999
                 Ionic strength (mol/kgw)  =   7.432e-02
                       Mass of water (kg)  =   1.000e+00
                 Total alkalinity (eq/kg)  =   6.000e-02
                         Temperature (°C)  =  25.00
                  Electrical balance (eq)  =  -1.217e-09
 Percent error, 100*(Cat-|An|)/(Cat+|An|)  =  -0.00
                               Iterations  =  16
                                  Total H  = 1.110724e+02
                                  Total O  = 5.556622e+01

----------------------------Distribution of species----------------------------

                                               Log       Log       Log    mole V
   Species          Molality    Activity  Molality  Activity     Gamma   cm³/mol

   OH-             5.211e-02   4.084e-02    -1.283    -1.389    -0.106     -3.80
   H+              2.955e-13   2.475e-13   -12.529   -12.606    -0.077      0.00
   H2O             5.551e+01   9.986e-01     1.744    -0.001     0.000     18.07
Ca            3.003e-02
   Ca+2            2.214e-02   9.405e-03    -1.655    -2.027    -0.372    -17.52
   CaOH+           7.889e-03   6.297e-03    -2.103    -2.201    -0.098     (0)  
F             6.492e-05
   F-              6.492e-05   5.088e-05    -4.188    -4.293    -0.106     -1.28
   HF              1.856e-14   1.888e-14   -13.731   -13.724     0.007     12.50
   HF2-            4.619e-18   3.687e-18   -17.335   -17.433    -0.098     22.29
H(0)          2.908e-39
   H2              1.454e-39   1.480e-39   -38.837   -38.830     0.008     14.99
O(0)          3.882e-15
   O2              1.941e-15   1.974e-15   -14.712   -14.705     0.007     30.40

------------------------------Saturation indices-------------------------------

  Phase               SI** log IAP   log K(298 K,   1 atm)

  Fluorite         -0.00    -10.61  -10.61  CaF2
  H2(g)           -35.73    -38.83   -3.10  H2
  H2O(g)           -1.50     -0.00    1.50  H2O
  O2(g)           -11.81    -14.70   -2.89  O2

**For a gas, SI = log10(fugacity). Fugacity = pressure * phi / 1 atm.
  For ideal gases, phi = 1.

Reaction step 12.

Using solution 1.	Pure water
Using pure phase assemblage 1.	
Using reaction 1.	

Reaction 1.	

	  5.000e-02 moles of the following reaction have been added:

	                 Relative
	Reactant            moles

	Ca(OH)2              1.00000

	                 Relative
	Element             moles
	Ca                   1.00000
	H                    2.00000
	O                    2.00000

-------------------------------Phase assemblage--------------------------------

                                                      Moles in assemblage
Phase               SI  log IAP  log K(T, P)   Initial       Final       Delta

Fluorite          0.00   -10.61    -10.61    1.000e+01   1.000e+01  -2.944e-05

-----------------------------Solution composition------------------------------

	Elements           Molality       Moles

	Ca                5.003e-02   5.003e-02
	F                 5.888e-05   5.888e-05

----------------------------Description of solution----------------------------

                                       pH  =  12.792      Charge balance
                                       pe  =   5.113      Adjusted to redox equilibrium
      Specific Conductance (µS/cm,  25°C)  = 16876
                          Density (g/cm³)  =   1.00163
                               Volume (L)  =   1.00208
                        Viscosity (mPa s)  =   0.91305
                        Activity of water  =   0.998
                 Ionic strength (mol/kgw)  =   1.169e-01
                       Mass of water (kg)  =   1.000e+00
                 Total alkalinity (eq/kg)  =   1.000e-01
                         Temperature (°C)  =  25.00
                  Electrical balance (eq)  =  -1.220e-09
 Percent error, 100*(Cat-|An|)/(Cat+|An|)  =  -0.00
                               Iterations  =  16
                                  Total H  = 1.111124e+02
                                  Total O  = 5.560622e+01

----------------------------Distribution of species----------------------------

                                               Log       Log       Log    mole V
   Species          Molality    Activity  Molality  Activity     Gamma   cm³/mol

   OH-             8.341e-02   6.253e-02    -1.079    -1.204    -0.125     -3.69
   H+              1.972e-13   1.615e-13   -12.705   -12.792    -0.087      0.00
   H2O             5.551e+01   9.977e-01     1.744    -0.001     0.000     18.07
Ca            5.003e-02
   Ca+2            3.344e-02   1.250e-02    -1.476    -1.903    -0.427    -17.39
   CaOH+           1.659e-02   1.281e-02    -1.780    -1.892    -0.112     (0)  
F             5.888e-05
   F-              5.888e-05   4.413e-05    -4.230    -4.355    -0.125     -1.15
   HF              1.041e-14   1.069e-14   -13.983   -13.971     0.012     12.50
   HF2-            2.343e-18   1.810e-18   -17.630   -17.742    -0.112     22.35
H(0)          2.130e-39
   H2              1.065e-39   1.095e-39   -38.973   -38.960     0.012     14.99
O(0)          7.009e-15
   O2              3.505e-15   3.600e-15   -14.455   -14.444     0.012     30.40

------------------------------Saturation indices-------------------------------

  Phase               SI** log IAP   log K(298 K,   1 atm)

  Fluorite          0.00    -10.61  -10.61  CaF2
  H2(g)           -35.86    -38.96   -3.10  H2
  H2O(g)           -1.50     -0.00    1.50  H2O
  O2(g)           -11.55    -14.44   -2.89  O2

**For a gas, SI = log10(fugacity). Fugacity = pressure * phi / 1 atm.
  For ideal gases, phi = 1.

------------------
End of simulation.
------------------

------------------------------------
Reading input data for simulation 2.
------------------------------------

	SOLUTION 2  Pure water
	        pH      7
	        temp    25
	EQUILIBRIUM_PHASES 2
	        Fluorite        0.0
	REACTION 2
	        Ca(OH)2  1
	        0.0     0.0005   0.001   0.002   0.004   0.006   0.008   0.01    0.015   0.02    0.03    0.05
	USER_GRAPH 2  Uses GRAPH_X, GRAPH_Y, GRAPH_SY
	        -headings Ca F pH
	        -axis_titles "Calcium, in milligrams per liter" "Fluoride, in milligrams per liter" "pH"
	        -chart_title "Fluorite Equilibrium (Manual Example 2 - GRAPH_X/Y/SY)"
	        -start
	  10 GRAPH_X TOT("Ca") * 40.08e3
	  20 GRAPH_Y TOT("F") * 19e3
	  30 GRAPH_SY -LA("H+")
	        -end
	END
-------------------------------------------
Beginning of initial solution calculations.
-------------------------------------------

Initial solution 2.	Pure water

-----------------------------Solution composition------------------------------

	Elements           Molality       Moles

	Pure water     

----------------------------Description of solution----------------------------

                                       pH  =   7.000    
                                       pe  =   4.000    
      Specific Conductance (µS/cm,  25°C)  = 0
                          Density (g/cm³)  =   0.99704
                               Volume (L)  =   1.00297
                        Viscosity (mPa s)  =   0.89002
                        Activity of water  =   1.000
                 Ionic strength (mol/kgw)  =   1.007e-07
                       Mass of water (kg)  =   1.000e+00
                 Total alkalinity (eq/kg)  =   1.217e-09
                         Temperature (°C)  =  25.00
                  Electrical balance (eq)  =  -1.217e-09
 Percent error, 100*(Cat-|An|)/(Cat+|An|)  =  -0.60
                               Iterations  =   0
                                  Total H  = 1.110124e+02
                                  Total O  = 5.550622e+01

----------------------------Distribution of species----------------------------

                                               Log       Log       Log    mole V
   Species          Molality    Activity  Molality  Activity     Gamma   cm³/mol

   OH-             1.013e-07   1.012e-07    -6.995    -6.995    -0.000     -4.14
   H+              1.001e-07   1.000e-07    -7.000    -7.000    -0.000      0.00
   H2O             5.551e+01   1.000e+00     1.744     0.000     0.000     18.07
H(0)          1.416e-25
   H2              7.079e-26   7.079e-26   -25.150   -25.150     0.000     14.99
O(0)          0.000e+00
   O2              0.000e+00   0.000e+00   -42.063   -42.063     0.000     30.40

------------------------------Saturation indices-------------------------------

  Phase               SI** log IAP   log K(298 K,   1 atm)

  H2(g)           -22.05    -25.15   -3.10  H2
  H2O(g)           -1.50      0.00    1.50  H2O
  O2(g)           -39.17    -42.06   -2.89  O2

**For a gas, SI = log10(fugacity). Fugacity = pressure * phi / 1 atm.
  For ideal gases, phi = 1.

-----------------------------------------
Beginning of batch-reaction calculations.
-----------------------------------------

Reaction step 1.

Using solution 2.	Pure water
Using pure phase assemblage 2.	
Using reaction 2.	

Reaction 2.	

	  0.000e+00 moles of the following reaction have been added:

	                 Relative
	Reactant            moles

	Ca(OH)2              1.00000

	                 Relative
	Element             moles
	Ca                   1.00000
	H                    2.00000
	O                    2.00000

-------------------------------Phase assemblage--------------------------------

                                                      Moles in assemblage
Phase               SI  log IAP  log K(T, P)   Initial       Final       Delta

Fluorite          0.00   -10.61    -10.61    1.000e+01   1.000e+01  -1.928e-04

-----------------------------Solution composition------------------------------

	Elements           Molality       Moles

	Ca                1.928e-04   1.928e-04
	F                 3.856e-04   3.856e-04

----------------------------Description of solution----------------------------

                                       pH  =   7.094      Charge balance
                                       pe  =  10.706      Adjusted to redox equilibrium
      Specific Conductance (µS/cm,  25°C)  = 42
                          Density (g/cm³)  =   0.99706
                               Volume (L)  =   1.00296
                        Viscosity (mPa s)  =   0.89051
                        Activity of water  =   1.000
                 Ionic strength (mol/kgw)  =   5.785e-04
                       Mass of water (kg)  =   1.000e+00
                 Total alkalinity (eq/kg)  =   1.217e-09
                         Temperature (°C)  =  25.00
                  Electrical balance (eq)  =  -1.217e-09
 Percent error, 100*(Cat-|An|)/(Cat+|An|)  =  -0.00
                               Iterations  =  12
                                  Total H  = 1.110124e+02
                                  Total O  = 5.550622e+01

----------------------------Distribution of species----------------------------

                                               Log       Log       Log    mole V
   Species          Molality    Activity  Molality  Activity     Gamma   cm³/mol

   OH-             1.290e-07   1.255e-07    -6.889    -6.901    -0.012     -4.12
   H+              8.277e-08   8.062e-08    -7.082    -7.094    -0.011      0.00
   H2O             5.551e+01   1.000e+00     1.744    -0.000     0.000     18.07
Ca            1.928e-04
   Ca+2            1.928e-04   1.730e-04    -3.715    -3.762    -0.047    -18.17
   CaOH+           3.660e-10   3.561e-10    -9.437    -9.448    -0.012     (0)  
F             3.856e-04
   F-              3.856e-04   3.751e-04    -3.414    -3.426    -0.012     -1.59
   HF              4.535e-08   4.536e-08    -7.343    -7.343     0.000     12.50
   HF2-            6.710e-11   6.529e-11   -10.173   -10.185    -0.012     22.05
H(0)          3.556e-39
   H2              1.778e-39   1.778e-39   -38.750   -38.750     0.000     14.99
O(0)          2.744e-15
   O2              1.372e-15   1.372e-15   -14.863   -14.863     0.000     30.40

------------------------------Saturation indices-------------------------------

  Phase               SI** log IAP   log K(298 K,   1 atm)

  Fluorite          0.00    -10.61  -10.61  CaF2
  H2(g)           -35.65    -38.75   -3.10  H2
  H2O(g)           -1.50     -0.00    1.50  H2O
  O2(g)           -11.97    -14.86   -2.89  O2

**For a gas, SI = log10(fugacity). Fugacity = pressure * phi / 1 atm.
  For ideal gases, phi = 1.

Reaction step 2.

Using solution 2.	Pure water
Using pure phase assemblage 2.	
Using reaction 2.	

Reaction 2.	

	  5.000e-04 moles of the following reaction have been added:

	                 Relative
	Reactant            moles

	Ca(OH)2              1.00000

	                 Relative
	Element             moles
	Ca                   1.00000
	H                    2.00000
	O                    2.00000

-------------------------------Phase assemblage--------------------------------

                                                      Moles in assemblage
Phase               SI  log IAP  log K(T, P)   Initial       Final       Delta

Fluorite          0.00   -10.61    -10.61    1.000e+01   1.000e+01  -1.153e-04

-----------------------------Solution composition------------------------------

	Elements           Molality       Moles

	Ca                6.153e-04   6.153e-04
	F                 2.307e-04   2.307e-04

----------------------------Description of solution----------------------------

                                       pH  =  10.970      Charge balance
                                       pe  =  -5.193      Adjusted to redox equilibrium
      Specific Conductance (µS/cm,  25°C)  = 270
                          Density (g/cm³)  =   0.99710
                               Volume (L)  =   1.00295
                        Viscosity (mPa s)  =   0.89080
                        Activity of water  =   1.000
                 Ionic strength (mol/kgw)  =   1.830e-03
                       Mass of water (kg)  =   1.000e+00
                 Total alkalinity (eq/kg)  =   1.000e-03
                         Temperature (°C)  =  25.00
                  Electrical balance (eq)  =  -1.206e-09
 Percent error, 100*(Cat-|An|)/(Cat+|An|)  =  -0.00
                               Iterations  =  14
                                  Total H  = 1.110134e+02
                                  Total O  = 5.550722e+01

----------------------------Distribution of species----------------------------

                                               Log       Log       Log    mole V
   Species          Molality    Activity  Molality  Activity     Gamma   cm³/mol

   OH-             9.918e-04   9.454e-04    -3.004    -3.024    -0.021     -4.10
   H+              1.119e-11   1.071e-11   -10.951   -10.970    -0.019      0.00
   H2O             5.551e+01   1.000e+00     1.744    -0.000     0.000     18.07
Ca            6.153e-04
   Ca+2            6.071e-04   5.036e-04    -3.217    -3.298    -0.081    -18.10
   CaOH+           8.186e-06   7.806e-06    -5.087    -5.108    -0.021     (0)  
F             2.307e-04
   F-              2.307e-04   2.199e-04    -3.637    -3.658    -0.021     -1.58
   HF              3.529e-12   3.530e-12   -11.452   -11.452     0.000     12.50
   HF2-            3.123e-15   2.978e-15   -14.505   -14.526    -0.021     22.07
H(0)          3.948e-15
   H2              1.974e-15   1.975e-15   -14.705   -14.704     0.000     14.99
O(0)          0.000e+00
   O2              0.000e+00   0.000e+00   -62.954   -62.954     0.000     30.40

------------------------------Saturation indices-------------------------------

  Phase               SI** log IAP   log K(298 K,   1 atm)

  Fluorite          0.00    -10.61  -10.61  CaF2
  H2(g)           -11.61    -14.70   -3.10  H2
  H2O(g)           -1.50     -0.00    1.50  H2O
  O2(g)           -60.06    -62.95   -2.89  O2

**For a gas, SI = log10(fugacity). Fugacity = pressure * phi / 1 atm.
  For ideal gases, phi = 1.

Reaction step 3.

Using solution 2.	Pure water
Using pure phase assemblage 2.	
Using reaction 2.	

Reaction 2.	

	  1.000e-03 moles of the following reaction have been added:

	                 Relative
	Reactant            moles

	Ca(OH)2              1.00000

	                 Relative
	Element             moles
	Ca                   1.00000
	H                    2.00000
	O                    2.00000

-------------------------------Phase assemblage--------------------------------

                                                      Moles in assemblage
Phase               SI  log IAP  log K(T, P)   Initial       Final       Delta

Fluorite          0.00   -10.61    -10.61    1.000e+01   1.000e+01  -9.090e-05

-----------------------------Solution composition------------------------------

	Elements           Molality       Moles

	Ca                1.091e-03   1.091e-03
	F                 1.818e-04   1.818e-04

----------------------------Description of solution----------------------------

                                       pH  =  11.263      Charge balance
                                       pe  =   6.647      Adjusted to redox equilibrium
      Specific Conductance (µS/cm,  25°C)  = 503
                          Density (g/cm³)  =   0.99715
                               Volume (L)  =   1.00294
                        Viscosity (mPa s)  =   0.89114
                        Activity of water  =   1.000
                 Ionic strength (mol/kgw)  =   3.219e-03
                       Mass of water (kg)  =   1.000e+00
                 Total alkalinity (eq/kg)  =   2.000e-03
                         Temperature (°C)  =  25.00
                  Electrical balance (eq)  =  -1.217e-09
 Percent error, 100*(Cat-|An|)/(Cat+|An|)  =  -0.00
                               Iterations  =  15
                                  Total H  = 1.110144e+02
                                  Total O  = 5.550822e+01

----------------------------Distribution of species----------------------------

                                               Log       Log       Log    mole V
   Species          Molality    Activity  Molality  Activity     Gamma   cm³/mol

   OH-             1.973e-03   1.853e-03    -2.705    -2.732    -0.027     -4.08
   H+              5.781e-12   5.461e-12   -11.238   -11.263    -0.025      0.00
   H2O             5.551e+01   9.999e-01     1.744    -0.000     0.000     18.07
Ca            1.091e-03
   Ca+2            1.064e-03   8.348e-04    -2.973    -3.078    -0.105    -18.06
   CaOH+           2.699e-05   2.537e-05    -4.569    -4.596    -0.027     (0)  
F             1.818e-04
   F-              1.818e-04   1.708e-04    -3.740    -3.768    -0.027     -1.56
   HF              1.398e-12   1.399e-12   -11.855   -11.854     0.000     12.50
   HF2-            9.750e-16   9.164e-16   -15.011   -15.038    -0.027     22.08
H(0)          2.146e-39
   H2              1.073e-39   1.074e-39   -38.969   -38.969     0.000     14.99
O(0)          7.519e-15
   O2              3.760e-15   3.762e-15   -14.425   -14.425     0.000     30.40

------------------------------Saturation indices-------------------------------

  Phase               SI** log IAP   log K(298 K,   1 atm)

  Fluorite          0.00    -10.61  -10.61  CaF2
  H2(g)           -35.87    -38.97   -3.10  H2
  H2O(g)           -1.50     -0.00    1.50  H2O
  O2(g)           -11.53    -14.42   -2.89  O2

**For a gas, SI = log10(fugacity). Fugacity = pressure * phi / 1 atm.
  For ideal gases, phi = 1.

Reaction step 4.

Using solution 2.	Pure water
Using pure phase assemblage 2.	
Using reaction 2.	

Reaction 2.	

	  2.000e-03 moles of the following reaction have been added:

	                 Relative
	Reactant            moles

	Ca(OH)2              1.00000

	                 Relative
	Element             moles
	Ca                   1.00000
	H                    2.00000
	O                    2.00000

-------------------------------Phase assemblage--------------------------------

                                                      Moles in assemblage
Phase               SI  log IAP  log K(T, P)   Initial       Final       Delta

Fluorite          0.00   -10.61    -10.61    1.000e+01   1.000e+01  -7.080e-05

-----------------------------Solution composition------------------------------

	Elements           Molality       Moles

	Ca                2.071e-03   2.071e-03
	F                 1.416e-04   1.416e-04

----------------------------Description of solution----------------------------

                                       pH  =  11.550      Charge balance
                                       pe  =  -5.767      Adjusted to redox equilibrium
      Specific Conductance (µS/cm,  25°C)  = 959
                          Density (g/cm³)  =   0.99725
                               Volume (L)  =   1.00291
                        Viscosity (mPa s)  =   0.89180
                        Activity of water  =   1.000
                 Ionic strength (mol/kgw)  =   6.029e-03
                       Mass of water (kg)  =   1.000e+00
                 Total alkalinity (eq/kg)  =   4.000e-03
                         Temperature (°C)  =  25.00
                  Electrical balance (eq)  =  -1.217e-09
 Percent error, 100*(Cat-|An|)/(Cat+|An|)  =  -0.00
                               Iterations  =  15
                                  Total H  = 1.110164e+02
                                  Total O  = 5.551022e+01

----------------------------Distribution of species----------------------------

                                               Log       Log       Log    mole V
   Species          Molality    Activity  Molality  Activity     Gamma   cm³/mol

   OH-             3.908e-03   3.594e-03    -2.408    -2.444    -0.036     -4.06
   H+              3.032e-12   2.816e-12   -11.518   -11.550    -0.032      0.00
   H2O             5.551e+01   9.999e-01     1.744    -0.000     0.000     18.07
Ca            2.071e-03
   Ca+2            1.979e-03   1.435e-03    -2.704    -2.843    -0.139    -17.99
   CaOH+           9.186e-05   8.459e-05    -4.037    -4.073    -0.036     (0)  
F             1.416e-04
   F-              1.416e-04   1.302e-04    -3.849    -3.885    -0.036     -1.54
   HF              5.492e-13   5.500e-13   -12.260   -12.260     0.001     12.50
   HF2-            2.985e-16   2.748e-16   -15.525   -15.561    -0.036     22.10
H(0)          3.833e-15
   H2              1.917e-15   1.920e-15   -14.717   -14.717     0.001     14.99
O(0)          0.000e+00
   O2              0.000e+00   0.000e+00   -62.930   -62.929     0.001     30.40

------------------------------Saturation indices-------------------------------

  Phase               SI** log IAP   log K(298 K,   1 atm)

  Fluorite          0.00    -10.61  -10.61  CaF2
  H2(g)           -11.62    -14.72   -3.10  H2
  H2O(g)           -1.50     -0.00    1.50  H2O
  O2(g)           -60.04    -62.93   -2.89  O2

**For a gas, SI = log10(fugacity). Fugacity = pressure * phi / 1 atm.
  For ideal gases, phi = 1.

Reaction step 5.

Using solution 2.	Pure water
Using pure phase assemblage 2.	
Using reaction 2.	

Reaction 2.	

	  4.000e-03 moles of the following reaction have been added:

	                 Relative
	Reactant            moles

	Ca(OH)2              1.00000

	                 Relative
	Element             moles
	Ca                   1.00000
	H                    2.00000
	O                    2.00000

-------------------------------Phase assemblage--------------------------------

                                                      Moles in assemblage
Phase               SI  log IAP  log K(T, P)   Initial       Final       Delta

Fluorite         -0.00   -10.61    -10.61    1.000e+01   1.000e+01  -5.576e-05

-----------------------------Solution composition------------------------------

	Elements           Molality       Moles

	Ca                4.056e-03   4.056e-03
	F                 1.115e-04   1.115e-04

----------------------------Description of solution----------------------------

                                       pH  =  11.832      Charge balance
                                       pe  =   6.079      Adjusted to redox equilibrium
      Specific Conductance (µS/cm,  25°C)  = 1829
                          Density (g/cm³)  =   0.99744
                               Volume (L)  =   1.00287
                        Viscosity (mPa s)  =   0.89304
                        Activity of water  =   1.000
                 Ionic strength (mol/kgw)  =   1.155e-02
                       Mass of water (kg)  =   1.000e+00
                 Total alkalinity (eq/kg)  =   8.000e-03
                         Temperature (°C)  =  25.00
                  Electrical balance (eq)  =  -1.217e-09
 Percent error, 100*(Cat-|An|)/(Cat+|An|)  =  -0.00
                               Iterations  =  15
                                  Total H  = 1.110204e+02
                                  Total O  = 5.551422e+01

----------------------------Distribution of species----------------------------

                                               Log       Log       Log    mole V
   Species          Molality    Activity  Molality  Activity     Gamma   cm³/mol

   OH-             7.692e-03   6.874e-03    -2.114    -2.163    -0.049     -4.02
   H+              1.620e-12   1.472e-12   -11.790   -11.832    -0.042      0.00
   H2O             5.551e+01   9.998e-01     1.744    -0.000     0.000     18.07
Ca            4.056e-03
   Ca+2            3.747e-03   2.451e-03    -2.426    -2.611    -0.184    -17.91
   CaOH+           3.083e-04   2.762e-04    -3.511    -3.559    -0.048     (0)  
F             1.115e-04
   F-              1.115e-04   9.967e-05    -3.953    -4.001    -0.049     -1.51
   HF              2.195e-13   2.200e-13   -12.659   -12.658     0.001     12.50
   HF2-            9.392e-17   8.415e-17   -16.027   -16.075    -0.048     22.13
H(0)          2.124e-39
   H2              1.062e-39   1.065e-39   -38.974   -38.973     0.001     14.99
O(0)          7.632e-15
   O2              3.816e-15   3.826e-15   -14.418   -14.417     0.001     30.40

------------------------------Saturation indices-------------------------------

  Phase               SI** log IAP   log K(298 K,   1 atm)

  Fluorite         -0.00    -10.61  -10.61  CaF2
  H2(g)           -35.87    -38.97   -3.10  H2
  H2O(g)           -1.50     -0.00    1.50  H2O
  O2(g)           -11.52    -14.42   -2.89  O2

**For a gas, SI = log10(fugacity). Fugacity = pressure * phi / 1 atm.
  For ideal gases, phi = 1.

Reaction step 6.

Using solution 2.	Pure water
Using pure phase assemblage 2.	
Using reaction 2.	

Reaction 2.	

	  6.000e-03 moles of the following reaction have been added:

	                 Relative
	Reactant            moles

	Ca(OH)2              1.00000

	                 Relative
	Element             moles
	Ca                   1.00000
	H                    2.00000
	O                    2.00000

-------------------------------Phase assemblage--------------------------------

                                                      Moles in assemblage
Phase               SI  log IAP  log K(T, P)   Initial       Final       Delta

Fluorite          0.00   -10.61    -10.61    1.000e+01   1.000e+01  -4.900e-05

-----------------------------Solution composition------------------------------

	Elements           Molality       Moles

	Ca                6.049e-03   6.049e-03
	F                 9.801e-05   9.801e-05

----------------------------Description of solution----------------------------

                                       pH  =  11.994      Charge balance
                                       pe  =   5.816      Adjusted to redox equilibrium
      Specific Conductance (µS/cm,  25°C)  = 2657
                          Density (g/cm³)  =   0.99763
                               Volume (L)  =   1.00282
                        Viscosity (mPa s)  =   0.89418
                        Activity of water  =   1.000
                 Ionic strength (mol/kgw)  =   1.692e-02
                       Mass of water (kg)  =   1.000e+00
                 Total alkalinity (eq/kg)  =   1.200e-02
                         Temperature (°C)  =  25.00
                  Electrical balance (eq)  =  -1.217e-09
 Percent error, 100*(Cat-|An|)/(Cat+|An|)  =  -0.00
                               Iterations  =  15
                                  Total H  = 1.110244e+02
                                  Total O  = 5.551822e+01

----------------------------Distribution of species----------------------------

                                               Log       Log       Log    mole V
   Species          Molality    Activity  Molality  Activity     Gamma   cm³/mol

   OH-             1.139e-02   9.969e-03    -1.944    -2.001    -0.058     -4.00
   H+              1.133e-12   1.015e-12   -11.946   -11.994    -0.048      0.00
   H2O             5.551e+01   9.997e-01     1.744    -0.000     0.000     18.07
Ca            6.049e-03
   Ca+2            5.434e-03   3.306e-03    -2.265    -2.481    -0.216    -17.84
   CaOH+           6.149e-04   5.403e-04    -3.211    -3.267    -0.056     (0)  
F             9.801e-05
   F-              9.801e-05   8.581e-05    -4.009    -4.066    -0.058     -1.48
   HF              1.301e-13   1.306e-13   -12.886   -12.884     0.002     12.50
   HF2-            4.895e-17   4.301e-17   -16.310   -16.366    -0.056     22.15
H(0)          3.396e-39
   H2              1.698e-39   1.705e-39   -38.770   -38.768     0.002     14.99
O(0)          2.971e-15
   O2              1.486e-15   1.492e-15   -14.828   -14.826     0.002     30.40

------------------------------Saturation indices-------------------------------

  Phase               SI** log IAP   log K(298 K,   1 atm)

  Fluorite          0.00    -10.61  -10.61  CaF2
  H2(g)           -35.67    -38.77   -3.10  H2
  H2O(g)           -1.50     -0.00    1.50  H2O
  O2(g)           -11.93    -14.83   -2.89  O2

**For a gas, SI = log10(fugacity). Fugacity = pressure * phi / 1 atm.
  For ideal gases, phi = 1.

Reaction step 7.

Using solution 2.	Pure water
Using pure phase assemblage 2.	
Using reaction 2.	

Reaction 2.	

	  8.000e-03 moles of the following reaction have been added:

	                 Relative
	Reactant            moles

	Ca(OH)2              1.00000

	                 Relative
	Element             moles
	Ca                   1.00000
	H                    2.00000
	O                    2.00000

-------------------------------Phase assemblage--------------------------------

                                                      Moles in assemblage
Phase               SI  log IAP  log K(T, P)   Initial       Final       Delta

Fluorite          0.00   -10.61    -10.61    1.000e+01   1.000e+01  -4.498e-05

-----------------------------Solution composition------------------------------

	Elements           Molality       Moles

	Ca                8.045e-03   8.045e-03
	F                 8.995e-05   8.995e-05

----------------------------Description of solution----------------------------

                                       pH  =  12.106      Charge balance
                                       pe  =  -6.297      Adjusted to redox equilibrium
      Specific Conductance (µS/cm,  25°C)  = 3452
                          Density (g/cm³)  =   0.99782
                               Volume (L)  =   1.00278
                        Viscosity (mPa s)  =   0.89527
                        Activity of water  =   1.000
                 Ionic strength (mol/kgw)  =   2.215e-02
                       Mass of water (kg)  =   1.000e+00
                 Total alkalinity (eq/kg)  =   1.600e-02
                         Temperature (°C)  =  25.00
                  Electrical balance (eq)  =  -1.217e-09
 Percent error, 100*(Cat-|An|)/(Cat+|An|)  =  -0.00
                               Iterations  =  15
                                  Total H  = 1.110284e+02
                                  Total O  = 5.552222e+01

----------------------------Distribution of species----------------------------

                                               Log       Log       Log    mole V
   Species          Molality    Activity  Molality  Activity     Gamma   cm³/mol

   OH-             1.501e-02   1.293e-02    -1.824    -1.889    -0.065     -3.97
   H+              8.837e-13   7.827e-13   -12.054   -12.106    -0.053      0.00
   H2O             5.551e+01   9.996e-01     1.744    -0.000     0.000     18.07
Ca            8.045e-03
   Ca+2            7.052e-03   4.055e-03    -2.152    -2.392    -0.240    -17.80
   CaOH+           9.929e-04   8.595e-04    -3.003    -3.066    -0.063     (0)  
F             8.995e-05
   F-              8.995e-05   7.748e-05    -4.046    -4.111    -0.065     -1.46
   HF              9.049e-14   9.095e-14   -13.043   -13.041     0.002     12.50
   HF2-            3.124e-17   2.704e-17   -16.505   -16.568    -0.063     22.17
H(0)          3.380e-15
   H2              1.690e-15   1.699e-15   -14.772   -14.770     0.002     14.99
O(0)          0.000e+00
   O2              0.000e+00   0.000e+00   -62.826   -62.823     0.002     30.40

------------------------------Saturation indices-------------------------------

  Phase               SI** log IAP   log K(298 K,   1 atm)

  Fluorite          0.00    -10.61  -10.61  CaF2
  H2(g)           -11.67    -14.77   -3.10  H2
  H2O(g)           -1.50     -0.00    1.50  H2O
  O2(g)           -59.93    -62.82   -2.89  O2

**For a gas, SI = log10(fugacity). Fugacity = pressure * phi / 1 atm.
  For ideal gases, phi = 1.

Reaction step 8.

Using solution 2.	Pure water
Using pure phase assemblage 2.	
Using reaction 2.	

Reaction 2.	

	  1.000e-02 moles of the following reaction have been added:

	                 Relative
	Reactant            moles

	Ca(OH)2              1.00000

	                 Relative
	Element             moles
	Ca                   1.00000
	H                    2.00000
	O                    2.00000

-------------------------------Phase assemblage--------------------------------

                                                      Moles in assemblage
Phase               SI  log IAP  log K(T, P)   Initial       Final       Delta

Fluorite          0.00   -10.61    -10.61    1.000e+01   1.000e+01  -4.223e-05

-----------------------------Solution composition------------------------------

	Elements           Molality       Moles

	Ca                1.004e-02   1.004e-02
	F                 8.447e-05   8.447e-05

----------------------------Description of solution----------------------------

                                       pH  =  12.193      Charge balance
                                       pe  =   5.722      Adjusted to redox equilibrium
      Specific Conductance (µS/cm,  25°C)  = 4220
                          Density (g/cm³)  =   0.99801
                               Volume (L)  =   1.00274
                        Viscosity (mPa s)  =   0.89631
                        Activity of water  =   1.000
                 Ionic strength (mol/kgw)  =   2.727e-02
                       Mass of water (kg)  =   1.000e+00
                 Total alkalinity (eq/kg)  =   2.000e-02
                         Temperature (°C)  =  25.00
                  Electrical balance (eq)  =  -1.217e-09
 Percent error, 100*(Cat-|An|)/(Cat+|An|)  =  -0.00
                               Iterations  =  16
                                  Total H  = 1.110324e+02
                                  Total O  = 5.552622e+01

----------------------------Distribution of species----------------------------

                                               Log       Log       Log    mole V
   Species          Molality    Activity  Molality  Activity     Gamma   cm³/mol

   OH-             1.857e-02   1.578e-02    -1.731    -1.802    -0.071     -3.95
   H+              7.305e-13   6.412e-13   -12.136   -12.193    -0.057      0.00
   H2O             5.551e+01   9.995e-01     1.744    -0.000     0.000     18.07
Ca            1.004e-02
   Ca+2            8.612e-03   4.727e-03    -2.065    -2.325    -0.260    -17.76
   CaOH+           1.430e-03   1.223e-03    -2.845    -2.913    -0.068     (0)  
F             8.447e-05
   F-              8.447e-05   7.176e-05    -4.073    -4.144    -0.071     -1.44
   HF              6.858e-14   6.901e-14   -13.164   -13.161     0.003     12.50
   HF2-            2.223e-17   1.900e-17   -16.653   -16.721    -0.068     22.19
H(0)          2.080e-39
   H2              1.040e-39   1.047e-39   -38.983   -38.980     0.003     14.99
O(0)          7.859e-15
   O2              3.930e-15   3.954e-15   -14.406   -14.403     0.003     30.40

------------------------------Saturation indices-------------------------------

  Phase               SI** log IAP   log K(298 K,   1 atm)

  Fluorite          0.00    -10.61  -10.61  CaF2
  H2(g)           -35.88    -38.98   -3.10  H2
  H2O(g)           -1.50     -0.00    1.50  H2O
  O2(g)           -11.51    -14.40   -2.89  O2

**For a gas, SI = log10(fugacity). Fugacity = pressure * phi / 1 atm.
  For ideal gases, phi = 1.

Reaction step 9.

Using solution 2.	Pure water
Using pure phase assemblage 2.	
Using reaction 2.	

Reaction 2.	

	  1.500e-02 moles of the following reaction have been added:

	                 Relative
	Reactant            moles

	Ca(OH)2              1.00000

	                 Relative
	Element             moles
	Ca                   1.00000
	H                    2.00000
	O                    2.00000

-------------------------------Phase assemblage--------------------------------

                                                      Moles in assemblage
Phase               SI  log IAP  log K(T, P)   Initial       Final       Delta

Fluorite         -0.00   -10.61    -10.61    1.000e+01   1.000e+01  -3.798e-05

-----------------------------Solution composition------------------------------

	Elements           Molality       Moles

	Ca                1.504e-02   1.504e-02
	F                 7.596e-05   7.596e-05

----------------------------Description of solution----------------------------

                                       pH  =  12.348      Charge balance
                                       pe  =   5.473      Adjusted to redox equilibrium
      Specific Conductance (µS/cm,  25°C)  = 6049
                          Density (g/cm³)  =   0.99848
                               Volume (L)  =   1.00264
                        Viscosity (mPa s)  =   0.89877
                        Activity of water  =   0.999
                 Ionic strength (mol/kgw)  =   3.965e-02
                       Mass of water (kg)  =   1.000e+00
                 Total alkalinity (eq/kg)  =   3.000e-02
                         Temperature (°C)  =  25.00
                  Electrical balance (eq)  =  -1.151e-09
 Percent error, 100*(Cat-|An|)/(Cat+|An|)  =  -0.00
                               Iterations  =  15
                                  Total H  = 1.110424e+02
                                  Total O  = 5.553622e+01

[...]
                 Ionic strength (mol/kgw)  =   1.830e-03
                       Mass of water (kg)  =   1.000e+00
                 Total alkalinity (eq/kg)  =   1.000e-03
                         Temperature (°C)  =  25.00
                  Electrical balance (eq)  =  -1.206e-09
 Percent error, 100*(Cat-|An|)/(Cat+|An|)  =  -0.00
                               Iterations  =  14
                                  Total H  = 1.110134e+02
                                  Total O  = 5.550722e+01

----------------------------Distribution of species----------------------------

                                               Log       Log       Log    mole V
   Species          Molality    Activity  Molality  Activity     Gamma   cm³/mol

   OH-             9.918e-04   9.454e-04    -3.004    -3.024    -0.021     -4.10
   H+              1.119e-11   1.071e-11   -10.951   -10.970    -0.019      0.00
   H2O             5.551e+01   1.000e+00     1.744    -0.000     0.000     18.07
Ca            6.153e-04
   Ca+2            6.071e-04   5.036e-04    -3.217    -3.298    -0.081    -18.10
   CaOH+           8.186e-06   7.806e-06    -5.087    -5.108    -0.021     (0)  
F             2.307e-04
   F-              2.307e-04   2.199e-04    -3.637    -3.658    -0.021     -1.58
   HF              3.529e-12   3.530e-12   -11.452   -11.452     0.000     12.50
   HF2-            3.123e-15   2.978e-15   -14.505   -14.526    -0.021     22.07
H(0)          3.948e-15
   H2              1.974e-15   1.975e-15   -14.705   -14.704     0.000     14.99
O(0)          0.000e+00
   O2              0.000e+00   0.000e+00   -62.954   -62.954     0.000     30.40

------------------------------Saturation indices-------------------------------

  Phase               SI** log IAP   log K(298 K,   1 atm)

  Fluorite          0.00    -10.61  -10.61  CaF2
  H2(g)           -11.61    -14.70   -3.10  H2
  H2O(g)           -1.50     -0.00    1.50  H2O
  O2(g)           -60.06    -62.95   -2.89  O2

**For a gas, SI = log10(fugacity). Fugacity = pressure * phi / 1 atm.
  For ideal gases, phi = 1.

Reaction step 4.

Using solution 5.	Pure water
Using pure phase assemblage 5.	
Using reaction 5.	

Reaction 5.	

	  1.000e-03 moles of the following reaction have been added:

	                 Relative
	Reactant            moles

	Ca(OH)2              1.00000

	                 Relative
	Element             moles
	Ca                   1.00000
	H                    2.00000
	O                    2.00000

-------------------------------Phase assemblage--------------------------------

                                                      Moles in assemblage
Phase               SI  log IAP  log K(T, P)   Initial       Final       Delta

Fluorite          0.00   -10.61    -10.61    1.000e+01   1.000e+01  -9.090e-05

-----------------------------Solution composition------------------------------

	Elements           Molality       Moles

	Ca                1.091e-03   1.091e-03
	F                 1.818e-04   1.818e-04

----------------------------Description of solution----------------------------

                                       pH  =  11.263      Charge balance
                                       pe  =   6.647      Adjusted to redox equilibrium
      Specific Conductance (µS/cm,  25°C)  = 503
                          Density (g/cm³)  =   0.99715
                               Volume (L)  =   1.00294
                        Viscosity (mPa s)  =   0.89114
                        Activity of water  =   1.000
                 Ionic strength (mol/kgw)  =   3.219e-03
                       Mass of water (kg)  =   1.000e+00
                 Total alkalinity (eq/kg)  =   2.000e-03
                         Temperature (°C)  =  25.00
                  Electrical balance (eq)  =  -1.217e-09
 Percent error, 100*(Cat-|An|)/(Cat+|An|)  =  -0.00
                               Iterations  =  15
                                  Total H  = 1.110144e+02
                                  Total O  = 5.550822e+01

----------------------------Distribution of species----------------------------

                                               Log       Log       Log    mole V
   Species          Molality    Activity  Molality  Activity     Gamma   cm³/mol

   OH-             1.973e-03   1.853e-03    -2.705    -2.732    -0.027     -4.08
   H+              5.781e-12   5.461e-12   -11.238   -11.263    -0.025      0.00
   H2O             5.551e+01   9.999e-01     1.744    -0.000     0.000     18.07
Ca            1.091e-03
   Ca+2            1.064e-03   8.348e-04    -2.973    -3.078    -0.105    -18.06
   CaOH+           2.699e-05   2.537e-05    -4.569    -4.596    -0.027     (0)  
F             1.818e-04
   F-              1.818e-04   1.708e-04    -3.740    -3.768    -0.027     -1.56
   HF              1.398e-12   1.399e-12   -11.855   -11.854     0.000     12.50
   HF2-            9.750e-16   9.164e-16   -15.011   -15.038    -0.027     22.08
H(0)          2.146e-39
   H2              1.073e-39   1.074e-39   -38.969   -38.969     0.000     14.99
O(0)          7.519e-15
   O2              3.759e-15   3.762e-15   -14.425   -14.425     0.000     30.40

------------------------------Saturation indices-------------------------------

  Phase               SI** log IAP   log K(298 K,   1 atm)

  Fluorite          0.00    -10.61  -10.61  CaF2
  H2(g)           -35.87    -38.97   -3.10  H2
  H2O(g)           -1.50     -0.00    1.50  H2O
  O2(g)           -11.53    -14.42   -2.89  O2

**For a gas, SI = log10(fugacity). Fugacity = pressure * phi / 1 atm.
  For ideal gases, phi = 1.

Reaction step 5.

Using solution 5.	Pure water
Using pure phase assemblage 5.	
Using reaction 5.	

Reaction 5.	

	  5.000e-03 moles of the following reaction have been added:

	                 Relative
	Reactant            moles

	Ca(OH)2              1.00000

	                 Relative
	Element             moles
	Ca                   1.00000
	H                    2.00000
	O                    2.00000

-------------------------------Phase assemblage--------------------------------

                                                      Moles in assemblage
Phase               SI  log IAP  log K(T, P)   Initial       Final       Delta

Fluorite          0.00   -10.61    -10.61    1.000e+01   1.000e+01  -5.188e-05

-----------------------------Solution composition------------------------------

	Elements           Molality       Moles

	Ca                5.052e-03   5.052e-03
	F                 1.038e-04   1.038e-04

----------------------------Description of solution----------------------------

                                       pH  =  11.921      Charge balance
                                       pe  =  -6.125      Adjusted to redox equilibrium
      Specific Conductance (µS/cm,  25°C)  = 2248
                          Density (g/cm³)  =   0.99754
                               Volume (L)  =   1.00285
                        Viscosity (mPa s)  =   0.89362
                        Activity of water  =   1.000
                 Ionic strength (mol/kgw)  =   1.425e-02
                       Mass of water (kg)  =   1.000e+00
                 Total alkalinity (eq/kg)  =   1.000e-02
                         Temperature (°C)  =  25.00
                  Electrical balance (eq)  =  -1.217e-09
 Percent error, 100*(Cat-|An|)/(Cat+|An|)  =  -0.00
                               Iterations  =  15
                                  Total H  = 1.110224e+02
                                  Total O  = 5.551622e+01

----------------------------Distribution of species----------------------------

                                               Log       Log       Log    mole V
   Species          Molality    Activity  Molality  Activity     Gamma   cm³/mol

   OH-             9.548e-03   8.441e-03    -2.020    -2.074    -0.054     -4.01
   H+              1.330e-12   1.199e-12   -11.876   -11.921    -0.045      0.00
   H2O             5.551e+01   9.998e-01     1.744    -0.000     0.000     18.07
Ca            5.052e-03
   Ca+2            4.600e-03   2.894e-03    -2.337    -2.538    -0.201    -17.87
   CaOH+           4.517e-04   4.005e-04    -3.345    -3.397    -0.052     (0)  
F             1.038e-04
   F-              1.038e-04   9.172e-05    -3.984    -4.038    -0.054     -1.50
   HF              1.644e-13   1.649e-13   -12.784   -12.783     0.001     12.50
   HF2-            6.544e-17   5.803e-17   -16.184   -16.236    -0.052     22.14
H(0)          3.605e-15
   H2              1.803e-15   1.809e-15   -14.744   -14.743     0.001     14.99
O(0)          0.000e+00
   O2              0.000e+00   0.000e+00   -62.879   -62.878     0.001     30.40

------------------------------Saturation indices-------------------------------

  Phase               SI** log IAP   log K(298 K,   1 atm)

  Fluorite          0.00    -10.61  -10.61  CaF2
  H2(g)           -11.64    -14.74   -3.10  H2
  H2O(g)           -1.50     -0.00    1.50  H2O
  O2(g)           -59.99    -62.88   -2.89  O2

**For a gas, SI = log10(fugacity). Fugacity = pressure * phi / 1 atm.
  For ideal gases, phi = 1.

Reaction step 6.

Using solution 5.	Pure water
Using pure phase assemblage 5.	
Using reaction 5.	

Reaction 5.	

	  1.000e-02 moles of the following reaction have been added:

	                 Relative
	Reactant            moles

	Ca(OH)2              1.00000

	                 Relative
	Element             moles
	Ca                   1.00000
	H                    2.00000
	O                    2.00000

-------------------------------Phase assemblage--------------------------------

                                                      Moles in assemblage
Phase               SI  log IAP  log K(T, P)   Initial       Final       Delta

Fluorite          0.00   -10.61    -10.61    1.000e+01   1.000e+01  -4.223e-05

-----------------------------Solution composition------------------------------

	Elements           Molality       Moles

	Ca                1.004e-02   1.004e-02
	F                 8.447e-05   8.447e-05

----------------------------Description of solution----------------------------

                                       pH  =  12.193      Charge balance
                                       pe  =   5.722      Adjusted to redox equilibrium
      Specific Conductance (µS/cm,  25°C)  = 4220
                          Density (g/cm³)  =   0.99801
                               Volume (L)  =   1.00274
                        Viscosity (mPa s)  =   0.89631
                        Activity of water  =   1.000
                 Ionic strength (mol/kgw)  =   2.727e-02
                       Mass of water (kg)  =   1.000e+00
                 Total alkalinity (eq/kg)  =   2.000e-02
                         Temperature (°C)  =  25.00
                  Electrical balance (eq)  =  -1.217e-09
 Percent error, 100*(Cat-|An|)/(Cat+|An|)  =  -0.00
                               Iterations  =  16
                                  Total H  = 1.110324e+02
                                  Total O  = 5.552622e+01

----------------------------Distribution of species----------------------------

                                               Log       Log       Log    mole V
   Species          Molality    Activity  Molality  Activity     Gamma   cm³/mol

   OH-             1.857e-02   1.578e-02    -1.731    -1.802    -0.071     -3.95
   H+              7.305e-13   6.412e-13   -12.136   -12.193    -0.057      0.00
   H2O             5.551e+01   9.995e-01     1.744    -0.000     0.000     18.07
Ca            1.004e-02
   Ca+2            8.612e-03   4.727e-03    -2.065    -2.325    -0.260    -17.76
   CaOH+           1.430e-03   1.223e-03    -2.845    -2.913    -0.068     (0)  
F             8.447e-05
   F-              8.447e-05   7.176e-05    -4.073    -4.144    -0.071     -1.44
   HF              6.858e-14   6.901e-14   -13.164   -13.161     0.003     12.50
   HF2-            2.223e-17   1.900e-17   -16.653   -16.721    -0.068     22.19
H(0)          2.080e-39
   H2              1.040e-39   1.047e-39   -38.983   -38.980     0.003     14.99
O(0)          7.860e-15
   O2              3.930e-15   3.955e-15   -14.406   -14.403     0.003     30.40

------------------------------Saturation indices-------------------------------

  Phase               SI** log IAP   log K(298 K,   1 atm)

  Fluorite          0.00    -10.61  -10.61  CaF2
  H2(g)           -35.88    -38.98   -3.10  H2
  H2O(g)           -1.50     -0.00    1.50  H2O
  O2(g)           -11.51    -14.40   -2.89  O2

**For a gas, SI = log10(fugacity). Fugacity = pressure * phi / 1 atm.
  For ideal gases, phi = 1.

Reaction step 7.

Using solution 5.	Pure water
Using pure phase assemblage 5.	
Using reaction 5.	

Reaction 5.	

	  2.000e-02 moles of the following reaction have been added:

	                 Relative
	Reactant            moles

	Ca(OH)2              1.00000

	                 Relative
	Element             moles
	Ca                   1.00000
	H                    2.00000
	O                    2.00000

-------------------------------Phase assemblage--------------------------------

                                                      Moles in assemblage
Phase               SI  log IAP  log K(T, P)   Initial       Final       Delta

Fluorite         -0.00   -10.61    -10.61    1.000e+01   1.000e+01  -3.545e-05

-----------------------------Solution composition------------------------------

	Elements           Molality       Moles

	Ca                2.004e-02   2.004e-02
	F                 7.091e-05   7.091e-05

----------------------------Description of solution----------------------------

                                       pH  =  12.456      Charge balance
                                       pe  =  -6.581      Adjusted to redox equilibrium
      Specific Conductance (µS/cm,  25°C)  = 7775
                          Density (g/cm³)  =   0.99894
                               Volume (L)  =   1.00255
                        Viscosity (mPa s)  =   0.90107
                        Activity of water  =   0.999
                 Ionic strength (mol/kgw)  =   5.155e-02
                       Mass of water (kg)  =   1.000e+00
                 Total alkalinity (eq/kg)  =   4.000e-02
                         Temperature (°C)  =  25.00
                  Electrical balance (eq)  =  -8.874e-10
 Percent error, 100*(Cat-|An|)/(Cat+|An|)  =  -0.00
                               Iterations  =  15
                                  Total H  = 1.110524e+02
                                  Total O  = 5.554622e+01

----------------------------Distribution of species----------------------------

                                               Log       Log       Log    mole V
   Species          Molality    Activity  Molality  Activity     Gamma   cm³/mol

   OH-             3.572e-02   2.892e-02    -1.447    -1.539    -0.092     -3.87
   H+              4.102e-13   3.497e-13   -12.387   -12.456    -0.069      0.00
   H2O             5.551e+01   9.991e-01     1.744    -0.000     0.000     18.07
Ca            2.004e-02
   Ca+2            1.576e-02   7.390e-03    -1.802    -2.131    -0.329    -17.61
   CaOH+           4.276e-03   3.504e-03    -2.369    -2.455    -0.086     (0)  
F             7.091e-05
   F-              7.091e-05   5.739e-05    -4.149    -4.241    -0.092     -1.35
   HF              2.975e-14   3.010e-14   -13.527   -13.521     0.005     12.50
   HF2-            8.090e-18   6.629e-18   -17.092   -17.179    -0.086     22.25
H(0)          2.479e-15
   H2              1.239e-15   1.255e-15   -14.907   -14.901     0.005     14.99
O(0)          0.000e+00
   O2              0.000e+00   0.000e+00   -62.566   -62.561     0.005     30.40

------------------------------Saturation indices-------------------------------

  Phase               SI** log IAP   log K(298 K,   1 atm)

  Fluorite         -0.00    -10.61  -10.61  CaF2
  H2(g)           -11.80    -14.90   -3.10  H2
  H2O(g)           -1.50     -0.00    1.50  H2O
  O2(g)           -59.67    -62.56   -2.89  O2

**For a gas, SI = log10(fugacity). Fugacity = pressure * phi / 1 atm.
  For ideal gases, phi = 1.

Reaction step 8.

Using solution 5.	Pure water
Using pure phase assemblage 5.	
Using reaction 5.	

Reaction 5.	

	  5.000e-02 moles of the following reaction have been added:

	                 Relative
	Reactant            moles

	Ca(OH)2              1.00000

	                 Relative
	Element             moles
	Ca                   1.00000
	H                    2.00000
	O                    2.00000

-------------------------------Phase assemblage--------------------------------

                                                      Moles in assemblage
Phase               SI  log IAP  log K(T, P)   Initial       Final       Delta

Fluorite          0.00   -10.61    -10.61    1.000e+01   1.000e+01  -2.944e-05

-----------------------------Solution composition------------------------------

	Elements           Molality       Moles

	Ca                5.003e-02   5.003e-02
	F                 5.888e-05   5.888e-05

----------------------------Description of solution----------------------------

                                       pH  =  12.792      Charge balance
                                       pe  =   5.113      Adjusted to redox equilibrium
      Specific Conductance (µS/cm,  25°C)  = 16876
                          Density (g/cm³)  =   1.00163
                               Volume (L)  =   1.00208
                        Viscosity (mPa s)  =   0.91305
                        Activity of water  =   0.998
                 Ionic strength (mol/kgw)  =   1.169e-01
                       Mass of water (kg)  =   1.000e+00
                 Total alkalinity (eq/kg)  =   1.000e-01
                         Temperature (°C)  =  25.00
                  Electrical balance (eq)  =  -1.220e-09
 Percent error, 100*(Cat-|An|)/(Cat+|An|)  =  -0.00
                               Iterations  =  16
                                  Total H  = 1.111124e+02
                                  Total O  = 5.560622e+01

----------------------------Distribution of species----------------------------

                                               Log       Log       Log    mole V
   Species          Molality    Activity  Molality  Activity     Gamma   cm³/mol

   OH-             8.341e-02   6.253e-02    -1.079    -1.204    -0.125     -3.69
   H+              1.972e-13   1.615e-13   -12.705   -12.792    -0.087      0.00
   H2O             5.551e+01   9.977e-01     1.744    -0.001     0.000     18.07
Ca            5.003e-02
   Ca+2            3.344e-02   1.250e-02    -1.476    -1.903    -0.427    -17.39
   CaOH+           1.659e-02   1.281e-02    -1.780    -1.892    -0.112     (0)  
F             5.888e-05
   F-              5.888e-05   4.413e-05    -4.230    -4.355    -0.125     -1.15
   HF              1.041e-14   1.069e-14   -13.983   -13.971     0.012     12.50
   HF2-            2.343e-18   1.810e-18   -17.630   -17.742    -0.112     22.35
H(0)          2.133e-39
   H2              1.066e-39   1.097e-39   -38.972   -38.960     0.012     14.99
O(0)          6.989e-15
   O2              3.494e-15   3.590e-15   -14.457   -14.445     0.012     30.40

------------------------------Saturation indices-------------------------------

  Phase               SI** log IAP   log K(298 K,   1 atm)

  Fluorite          0.00    -10.61  -10.61  CaF2
  H2(g)           -35.86    -38.96   -3.10  H2
  H2O(g)           -1.50     -0.00    1.50  H2O
  O2(g)           -11.55    -14.44   -2.89  O2

**For a gas, SI = log10(fugacity). Fugacity = pressure * phi / 1 atm.
  For ideal gases, phi = 1.

------------------
End of simulation.
------------------

------------------------------------
Reading input data for simulation 6.
------------------------------------

----------------------------------
End of Run after 0.078551 Seconds.
----------------------------------

