   Input file: /Users/rowanterra/Desktop/phreeqc3_rrt/manual_examples/output/ex9/ex9.pqi
  Output file: /Users/rowanterra/Desktop/phreeqc3_rrt/manual_examples/output/ex9/ex9.pqi.out
Database file: /Users/rowanterra/Desktop/phreeqc3_rrt/database/phreeqc.dat

------------------
Reading data base.
------------------

	SOLUTION_MASTER_SPECIES
	SOLUTION_SPECIES
	PHASES
	GAS_BINARY_PARAMETERS
	EXCHANGE_MASTER_SPECIES
	EXCHANGE_SPECIES
	SURFACE_MASTER_SPECIES
	SURFACE_SPECIES
	MEAN_GAMMAS
	RATES
	END
------------------------------------
Reading input data for simulation 1.
------------------------------------

	DATABASE /Users/rowanterra/Desktop/phreeqc3_rrt/database/phreeqc.dat
	TITLE Example 9.--Kinetically controlled oxidation of ferrous
	                   iron. Decoupled valence states of iron.
	SOLUTION_MASTER_SPECIES
	Fe_di                Fe_di+2   0.0     Fe_di               55.847
	Fe_tri               Fe_tri+3  0.0     Fe_tri              55.847
	SOLUTION_SPECIES
	Fe_di+2 = Fe_di+2
	        log_k    0.0
	Fe_tri+3 = Fe_tri+3
	        log_k    0.0
	Fe_di+2 + H2O = Fe_diOH+ + H+
	         log_k   -9.5
	         delta_h 13.20   kcal
	Fe_tri+3 + H2O = Fe_triOH+2 + H+
	         log_k   -2.19
	         delta_h 10.4    kcal
	PHASES
	Goethite
	         Fe_triOOH + 3 H+ = Fe_tri+3 + 2 H2O
	         log_k   -1.0
	END
-----
TITLE
-----

 Example 9.--Kinetically controlled oxidation of ferrous
                   iron. Decoupled valence states of iron.

------------------
End of simulation.
------------------

------------------------------------
Reading input data for simulation 2.
------------------------------------

	SOLUTION 1
	         pH 7.0
	         pe 10.0 O2(g) -0.67
	         Fe_di 0.1
	         Na 10.
	         Cl 10. charge
	EQUILIBRIUM_PHASES 1
	         O2(g)           -0.67
	RATES
	Fe_di_ox
	  start
	  10 Fe_di = TOT("Fe_di")
	  20 if (Fe_di <= 0) then goto 200
	  30 p_o2 = SR("O2(g)")
	  40 moles = (2.91e-9 + 1.33e12 * (ACT("OH-"))^2 * p_o2) * Fe_di * TIME
	  200 SAVE moles
	  end
	KINETICS 1
	Fe_di_ox
	         formula Fe_di -1.0 Fe_tri 1.0
	        steps 100 400 3100 10800 21600 5.04e4 8.64e4 1.728e5 1.728e5 1.728e5 1.728e5
	         step_divide 1e-4
	INCREMENTAL_REACTIONS true
	SELECTED_OUTPUT
	         file ex9.sel
	         reset false
	USER_PUNCH
	         headings Days Fe(2) Fe(3) pH si_goethite
	  10 PUNCH SIM_TIME / 3600 / 24, TOT("Fe_di")*1e6, TOT("Fe_tri")*1e6, -LA("H+"),                SI("Goethite")
	USER_GRAPH Example 9
	         -headings _time_ Fe(2) Fe(3) pH
	         -chart_title "Oxidation of Ferrous Iron"
	              -axis_titles "Time, in days" "Micromole per kilogram water" "pH"
	              -axis_scale secondary_y_axis 4.0 7.0 1.0 0.5
	  -start
	  10 GRAPH_X TOTAL_TIME / 3600 / 24
	  20 GRAPH_Y TOT("Fe_tri")*1e6, TOT("Fe_di")*1e6
	  30 GRAPH_SY -LA("H+")
	  -end
	END
-------------------------------------------
Beginning of initial solution calculations.
-------------------------------------------

Initial solution 1.	

-----------------------------Solution composition------------------------------

	Elements           Molality       Moles

	Cl                1.020e-02   1.020e-02  Charge balance
	Fe_di             1.000e-04   1.000e-04
	Na                1.000e-02   1.000e-02

----------------------------Description of solution----------------------------

                                       pH  =   7.000    
                                       pe  =  13.625      Equilibrium with O2(g)
      Specific Conductance (µS/cm,  25°C)  = 1191
                          Density (g/cm³)  =   0.99747
                               Volume (L)  =   1.00315
                        Viscosity (mPa s)  =   0.89124
                        Activity of water  =   1.000
                 Ionic strength (mol/kgw)  =   1.030e-02
                       Mass of water (kg)  =   1.000e+00
                 Total alkalinity (eq/kg)  =   2.331e-07
                         Temperature (°C)  =  25.00
                  Electrical balance (eq)  =  -5.457e-18
 Percent error, 100*(Cat-|An|)/(Cat+|An|)  =  -0.00
                               Iterations  =   9
                                  Total H  = 1.110124e+02
                                  Total O  = 5.550676e+01

----------------------------Distribution of species----------------------------

                                               Log       Log       Log    mole V
   Species          Molality    Activity  Molality  Activity     Gamma   cm³/mol

   OH-             1.126e-07   1.012e-07    -6.949    -6.995    -0.046     -4.03
   H+              1.096e-07   1.000e-07    -6.960    -7.000    -0.040      0.00
   H2O             5.551e+01   9.997e-01     1.744    -0.000     0.000     18.07
Cl            1.020e-02
   Cl-             1.020e-02   9.175e-03    -1.991    -2.037    -0.046     18.14
   HCl             3.129e-10   3.161e-10    -9.505    -9.500     0.004     20.36
Fe_di         1.000e-04
   Fe_di+2         9.977e-05   6.567e-05    -4.001    -4.183    -0.182     (0)  
   Fe_diOH+        2.305e-07   2.076e-07    -6.637    -6.683    -0.045     (0)  
H(0)          0.000e+00
   H2              0.000e+00   0.000e+00   -44.401   -44.400     0.001     14.99
Na            1.000e-02
   Na+             1.000e-02   9.022e-03    -2.000    -2.045    -0.045     -1.38
O(0)          5.465e-04
   O2              2.732e-04   2.739e-04    -3.563    -3.562     0.001     30.40

------------------------------Saturation indices-------------------------------

  Phase               SI** log IAP   log K(298 K,   1 atm)

  H2(g)           -41.30    -44.40   -3.10  H2
  H2O(g)           -1.50     -0.00    1.50  H2O
  Halite           -5.65     -4.08    1.57  NaCl
  O2(g)            -0.67     -3.56   -2.89  O2	 Pressure   0.2 atm, phi 1.000

**For a gas, SI = log10(fugacity). Fugacity = pressure * phi / 1 atm.
  For ideal gases, phi = 1.

-----------------------------------------
Beginning of batch-reaction calculations.
-----------------------------------------

Reaction step 1.

Using solution 1.	
Using pure phase assemblage 1.	
Using kinetics 1.	

Kinetics 1.	

	Time step: 100 seconds  (Incremented time: 100 seconds)

	Rate name       Delta Moles Total Moles   Reactant        Coefficient

	Fe_di_ox         -2.910e-05   1.000e+00   Fe_di                    -1
	                                          Fe_tri                    1

-------------------------------Phase assemblage--------------------------------

                                                      Moles in assemblage
Phase               SI  log IAP  log K(T, P)   Initial       Final       Delta

O2(g)            -0.67    -3.56     -2.89    1.000e+01   1.000e+01  -7.275e-06

-----------------------------Solution composition------------------------------

	Elements           Molality       Moles

	Cl                1.020e-02   1.020e-02
	Fe_di             7.090e-05   7.090e-05
	Fe_tri            2.910e-05   2.910e-05
	Na                1.000e-02   1.000e-02

----------------------------Description of solution----------------------------

                                       pH  =   7.073      Charge balance
                                       pe  =  13.552      Adjusted to redox equilibrium
      Specific Conductance (µS/cm,  25°C)  = 1191
                          Density (g/cm³)  =   0.99747
                               Volume (L)  =   1.00315
                        Viscosity (mPa s)  =   0.89124
                        Activity of water  =   1.000
                 Ionic strength (mol/kgw)  =   1.030e-02
                       Mass of water (kg)  =   1.000e+00
                 Total alkalinity (eq/kg)  =   2.933e-05
                         Temperature (°C)  =  25.00
                  Electrical balance (eq)  =   7.039e-17
 Percent error, 100*(Cat-|An|)/(Cat+|An|)  =   0.00
                               Iterations  =  24
                                  Total H  = 1.110124e+02
                                  Total O  = 5.550678e+01

----------------------------Distribution of species----------------------------

                                               Log       Log       Log    mole V
   Species          Molality    Activity  Molality  Activity     Gamma   cm³/mol

   OH-             1.333e-07   1.198e-07    -6.875    -6.922    -0.046     -4.03
   H+              9.258e-08   8.447e-08    -7.033    -7.073    -0.040      0.00
   H2O             5.551e+01   9.997e-01     1.744    -0.000     0.000     18.07
Cl            1.020e-02
   Cl-             1.020e-02   9.175e-03    -1.991    -2.037    -0.046     18.14
   HCl             2.643e-10   2.670e-10    -9.578    -9.574     0.004     20.36
Fe_di         7.090e-05
   Fe_di+2         7.071e-05   4.654e-05    -4.151    -4.332    -0.182     (0)  
   Fe_diOH+        1.933e-07   1.741e-07    -6.714    -6.759    -0.045     (0)  
Fe_tri        2.910e-05
   Fe_triOH+2      2.910e-05   1.915e-05    -4.536    -4.718    -0.182     (0)  
   Fe_tri+3        6.425e-10   2.507e-10    -9.192    -9.601    -0.409     (0)  
H(0)          0.000e+00
   H2              0.000e+00   0.000e+00   -44.401   -44.400     0.001     14.99
Na            1.000e-02
   Na+             1.000e-02   9.022e-03    -2.000    -2.045    -0.045     -1.38
O(0)          5.465e-04
   O2              2.732e-04   2.739e-04    -3.563    -3.562     0.001     30.40

------------------------------Saturation indices-------------------------------

  Phase               SI** log IAP   log K(298 K,   1 atm)

  Goethite         12.62     11.62   -1.00  Fe_triOOH
  H2(g)           -41.30    -44.40   -3.10  H2
  H2O(g)           -1.50     -0.00    1.50  H2O
  Halite           -5.65     -4.08    1.57  NaCl
  O2(g)            -0.67     -3.56   -2.89  O2	 Pressure   0.2 atm, phi 1.000

**For a gas, SI = log10(fugacity). Fugacity = pressure * phi / 1 atm.
  For ideal gases, phi = 1.

Reaction step 2.

Using solution 1.	
Using pure phase assemblage 1.	
Using kinetics 1.	

Kinetics 1.	

	Time step: 400 seconds  (Incremented time: 500 seconds)

	Rate name       Delta Moles Total Moles   Reactant        Coefficient

	Fe_di_ox         -6.984e-05   9.999e-01   Fe_di                    -1
	                                          Fe_tri                    1

-------------------------------Phase assemblage--------------------------------

                                                      Moles in assemblage
Phase               SI  log IAP  log K(T, P)   Initial       Final       Delta

O2(g)            -0.67    -3.56     -2.89    1.000e+01   1.000e+01  -1.746e-05

-----------------------------Solution composition------------------------------

	Elements           Molality       Moles

	Cl                1.020e-02   1.020e-02
	Fe_di             1.064e-06   1.064e-06
	Fe_tri            9.894e-05   9.894e-05
	Na                1.000e-02   1.000e-02

----------------------------Description of solution----------------------------

                                       pH  =   7.385      Charge balance
                                       pe  =  13.240      Adjusted to redox equilibrium
      Specific Conductance (µS/cm,  25°C)  = 1191
                          Density (g/cm³)  =   0.99747
                               Volume (L)  =   1.00314
                        Viscosity (mPa s)  =   0.89124
                        Activity of water  =   1.000
                 Ionic strength (mol/kgw)  =   1.030e-02
                       Mass of water (kg)  =   1.000e+00
                 Total alkalinity (eq/kg)  =   9.917e-05
                         Temperature (°C)  =  25.00
                  Electrical balance (eq)  =   1.472e-13
 Percent error, 100*(Cat-|An|)/(Cat+|An|)  =   0.00
                               Iterations  = 143
                                  Total H  = 1.110124e+02
                                  Total O  = 5.550681e+01

----------------------------Distribution of species----------------------------

                                               Log       Log       Log    mole V
   Species          Molality    Activity  Molality  Activity     Gamma   cm³/mol

   OH-             2.735e-07   2.458e-07    -6.563    -6.609    -0.046     -4.03
   H+              4.511e-08   4.116e-08    -7.346    -7.385    -0.040      0.00
   H2O             5.551e+01   9.997e-01     1.744    -0.000     0.000     18.07
Cl            1.020e-02
   Cl-             1.020e-02   9.175e-03    -1.991    -2.037    -0.046     18.14
   HCl             1.288e-10   1.301e-10    -9.890    -9.886     0.004     20.36
Fe_di         1.064e-06
   Fe_di+2         1.058e-06   6.966e-07    -5.975    -6.157    -0.182     (0)  
   Fe_diOH+        5.940e-09   5.350e-09    -8.226    -8.272    -0.045     (0)  
Fe_tri        9.894e-05
   Fe_triOH+2      9.893e-05   6.512e-05    -4.005    -4.186    -0.182     (0)  
   Fe_tri+3        1.064e-09   4.153e-10    -8.973    -9.382    -0.409     (0)  
H(0)          0.000e+00
   H2              0.000e+00   0.000e+00   -44.401   -44.400     0.001     14.99
Na            1.000e-02
   Na+             1.000e-02   9.022e-03    -2.000    -2.045    -0.045     -1.38
O(0)          5.465e-04
   O2              2.732e-04   2.739e-04    -3.563    -3.562     0.001     30.40

------------------------------Saturation indices-------------------------------

  Phase               SI** log IAP   log K(298 K,   1 atm)

  Goethite         13.77     12.77   -1.00  Fe_triOOH
  H2(g)           -41.30    -44.40   -3.10  H2
  H2O(g)           -1.50     -0.00    1.50  H2O
  Halite           -5.65     -4.08    1.57  NaCl
  O2(g)            -0.67     -3.56   -2.89  O2	 Pressure   0.2 atm, phi 1.000

**For a gas, SI = log10(fugacity). Fugacity = pressure * phi / 1 atm.
  For ideal gases, phi = 1.

Reaction step 3.

WARNING: Negative moles in solution 1 for Fe_di, -1.027115e-05. Recovering...
WARNING: Negative moles in solution 1 for Fe_di, -1.621307e-06. Recovering...
WARNING: Negative moles in solution 1 for Fe_di, -1.240950e-10. Recovering...
WARNING: Negative moles in solution 1 for Fe_di, -1.058350e-09. Recovering...
WARNING: Negative moles in solution 1 for Fe_di, -1.018359e-09. Recovering...
WARNING: Negative moles in solution 1 for Fe_di, -6.890929e-10. Recovering...
WARNING: Negative moles in solution 1 for Fe_di, -3.779688e-10. Recovering...
WARNING: Negative moles in solution 1 for Fe_di, -1.741778e-10. Recovering...
WARNING: Negative moles in solution 1 for Fe_di, -6.786462e-11. Recovering...
WARNING: Negative moles in solution 1 for Fe_di, -2.222013e-11. Recovering...
WARNING: Negative moles in solution 1 for Fe_di, -8.623328e-14. Recovering...
WARNING: Negative moles in solution 1 for Fe_di, -3.496046e-14. Recovering...
WARNING: Negative moles in solution 1 for Fe_di, -7.303453e-15. Recovering...
WARNING: Negative moles in solution 1 for Fe_di, -1.050828e-15. Recovering...
WARNING: Negative moles in solution 1 for Fe_di, -1.150208e-16. Recovering...
WARNING: Negative moles in solution 1 for Fe_di, -1.212951e-17. Recovering...
WARNING: Negative moles in solution 1 for Fe_di, -1.345197e-17. Recovering...
WARNING: Negative moles in solution 1 for Fe_di, -9.672636e-18. Recovering...
WARNING: Negative moles in solution 1 for Fe_di, -5.542243e-18. Recovering...
WARNING: Negative moles in solution 1 for Fe_di, -2.656137e-18. Recovering...
WARNING: Negative moles in solution 1 for Fe_di, -1.076303e-18. Recovering...
WARNING: Negative moles in solution 1 for Fe_di, -3.672706e-19. Recovering...
WARNING: Negative moles in solution 1 for Fe_di, -1.042239e-21. Recovering...
WARNING: Negative moles in solution 1 for Fe_di, -5.879365e-22. Recovering...
WARNING: Negative moles in solution 1 for Fe_di, -1.370642e-22. Recovering...
WARNING: Negative moles in solution 1 for Fe_di, -2.126214e-23. Recovering...
WARNING: Negative moles in solution 1 for Fe_di, -2.512698e-24. Recovering...
WARNING: Negative moles in solution 1 for Fe_di, -1.990722e-25. Recovering...
WARNING: Negative moles in solution 1 for Fe_di, -2.734865e-25. Recovering...
WARNING: Negative moles in solution 1 for Fe_di, -2.125857e-25. Recovering...
WARNING: Negative moles in solution 1 for Fe_di, -4.323852e-25. Recovering...
Using solution 1.	
Using pure phase assemblage 1.	
Using kinetics 1.	

Kinetics 1.	

	Time step: 3100 seconds  (Incremented time: 3600 seconds)

	Rate name       Delta Moles Total Moles   Reactant        Coefficient

	Fe_di_ox         -1.064e-06   9.999e-01   Fe_di                    -1
	                                          Fe_tri                    1

-------------------------------Phase assemblage--------------------------------

                                                      Moles in assemblage
Phase               SI  log IAP  log K(T, P)   Initial       Final       Delta

O2(g)            -0.67    -3.56     -2.89    1.000e+01   1.000e+01  -2.661e-07

-----------------------------Solution composition------------------------------

	Elements           Molality       Moles

	Cl                1.020e-02   1.020e-02
	Fe_tri            1.000e-04   1.000e-04
	Na                1.000e-02   1.000e-02

----------------------------Description of solution----------------------------

                                       pH  =   7.394      Charge balance
                                       pe  =  13.232      Adjusted to redox equilibrium
      Specific Conductance (µS/cm,  25°C)  = 1191
                          Density (g/cm³)  =   0.99747
                               Volume (L)  =   1.00314
                        Viscosity (mPa s)  =   0.89124
                        Activity of water  =   1.000
                 Ionic strength (mol/kgw)  =   1.030e-02
                       Mass of water (kg)  =   1.000e+00
                 Total alkalinity (eq/kg)  =   1.002e-04
                         Temperature (°C)  =  25.00
                  Electrical balance (eq)  =   1.732e-13
 Percent error, 100*(Cat-|An|)/(Cat+|An|)  =   0.00
                               Iterations  = 826 (790 overall)
                                  Total H  = 1.110124e+02
                                  Total O  = 5.550681e+01

----------------------------Distribution of species----------------------------

                                               Log       Log       Log    mole V
   Species          Molality    Activity  Molality  Activity     Gamma   cm³/mol

   OH-             2.786e-07   2.504e-07    -6.555    -6.601    -0.046     -4.03
   H+              4.429e-08   4.041e-08    -7.354    -7.394    -0.040      0.00
   H2O             5.551e+01   9.997e-01     1.744    -0.000     0.000     18.07
Cl            1.020e-02
   Cl-             1.020e-02   9.175e-03    -1.991    -2.037    -0.046     18.14
   HCl             1.264e-10   1.277e-10    -9.898    -9.894     0.004     20.36
Fe_tri        1.000e-04
   Fe_triOH+2      1.000e-04   6.582e-05    -4.000    -4.182    -0.182     (0)  
   Fe_tri+3        1.056e-09   4.121e-10    -8.976    -9.385    -0.409     (0)  
H(0)          0.000e+00
   H2              0.000e+00   0.000e+00   -44.401   -44.400     0.001     14.99
Na            1.000e-02
   Na+             1.000e-02   9.022e-03    -2.000    -2.045    -0.045     -1.38
O(0)          5.465e-04
   O2              2.732e-04   2.739e-04    -3.563    -3.562     0.001     30.40

------------------------------Saturation indices-------------------------------

  Phase               SI** log IAP   log K(298 K,   1 atm)

  Goethite         13.80     12.80   -1.00  Fe_triOOH
  H2(g)           -41.30    -44.40   -3.10  H2
  H2O(g)           -1.50     -0.00    1.50  H2O
  Halite           -5.65     -4.08    1.57  NaCl
  O2(g)            -0.67     -3.56   -2.89  O2	 Pressure   0.2 atm, phi 1.000

**For a gas, SI = log10(fugacity). Fugacity = pressure * phi / 1 atm.
  For ideal gases, phi = 1.

Reaction step 4.

Using solution 1.	
Using pure phase assemblage 1.	
Using kinetics 1.	

Kinetics 1.	

	Time step: 10800 seconds  (Incremented time: 14400 seconds)

	Rate name       Delta Moles Total Moles   Reactant        Coefficient

	Fe_di_ox         -0.000e+00   9.999e-01   Fe_di                    -1
	                                          Fe_tri                    1

-------------------------------Phase assemblage--------------------------------

                                                      Moles in assemblage
Phase               SI  log IAP  log K(T, P)   Initial       Final       Delta

O2(g)            -0.67    -3.56     -2.89    1.000e+01   1.000e+01  -1.066e-14

-----------------------------Solution composition------------------------------

	Elements           Molality       Moles

	Cl                1.020e-02   1.020e-02
	Fe_tri            1.000e-04   1.000e-04
	Na                1.000e-02   1.000e-02

----------------------------Description of solution----------------------------

                                       pH  =   7.394      Charge balance
                                       pe  =  13.232      Adjusted to redox equilibrium
      Specific Conductance (µS/cm,  25°C)  = 1191
                          Density (g/cm³)  =   0.99747
                               Volume (L)  =   1.00314
                        Viscosity (mPa s)  =   0.89124
                        Activity of water  =   1.000
                 Ionic strength (mol/kgw)  =   1.030e-02
                       Mass of water (kg)  =   1.000e+00
                 Total alkalinity (eq/kg)  =   1.002e-04
                         Temperature (°C)  =  25.00
                  Electrical balance (eq)  =   1.732e-13
 Percent error, 100*(Cat-|An|)/(Cat+|An|)  =   0.00
                               Iterations  =   5
                                  Total H  = 1.110124e+02
                                  Total O  = 5.550681e+01

----------------------------Distribution of species----------------------------

                                               Log       Log       Log    mole V
   Species          Molality    Activity  Molality  Activity     Gamma   cm³/mol

   OH-             2.786e-07   2.504e-07    -6.555    -6.601    -0.046     -4.03
   H+              4.429e-08   4.041e-08    -7.354    -7.394    -0.040      0.00
   H2O             5.551e+01   9.997e-01     1.744    -0.000     0.000     18.07
Cl            1.020e-02
   Cl-             1.020e-02   9.175e-03    -1.991    -2.037    -0.046     18.14
   HCl             1.264e-10   1.277e-10    -9.898    -9.894     0.004     20.36
Fe_tri        1.000e-04
   Fe_triOH+2      1.000e-04   6.582e-05    -4.000    -4.182    -0.182     (0)  
   Fe_tri+3        1.056e-09   4.121e-10    -8.976    -9.385    -0.409     (0)  
H(0)          0.000e+00
   H2              0.000e+00   0.000e+00   -44.401   -44.400     0.001     14.99
Na            1.000e-02
   Na+             1.000e-02   9.022e-03    -2.000    -2.045    -0.045     -1.38
O(0)          5.465e-04
   O2              2.732e-04   2.739e-04    -3.563    -3.562     0.001     30.40

------------------------------Saturation indices-------------------------------

  Phase               SI** log IAP   log K(298 K,   1 atm)

  Goethite         13.80     12.80   -1.00  Fe_triOOH
  H2(g)           -41.30    -44.40   -3.10  H2
  H2O(g)           -1.50     -0.00    1.50  H2O
  Halite           -5.65     -4.08    1.57  NaCl
  O2(g)            -0.67     -3.56   -2.89  O2	 Pressure   0.2 atm, phi 1.000

**For a gas, SI = log10(fugacity). Fugacity = pressure * phi / 1 atm.
  For ideal gases, phi = 1.

Reaction step 5.

Using solution 1.	
Using pure phase assemblage 1.	
Using kinetics 1.	

Kinetics 1.	

	Time step: 21600 seconds  (Incremented time: 36000 seconds)

	Rate name       Delta Moles Total Moles   Reactant        Coefficient

	Fe_di_ox         -0.000e+00   9.999e-01   Fe_di                    -1
	                                          Fe_tri                    1

-------------------------------Phase assemblage--------------------------------

                                                      Moles in assemblage
Phase               SI  log IAP  log K(T, P)   Initial       Final       Delta

O2(g)            -0.67    -3.56     -2.89    1.000e+01   1.000e+01  -7.105e-15

-----------------------------Solution composition------------------------------

	Elements           Molality       Moles

	Cl                1.020e-02   1.020e-02
	Fe_tri            1.000e-04   1.000e-04
	Na                1.000e-02   1.000e-02

----------------------------Description of solution----------------------------

                                       pH  =   7.394      Charge balance
                                       pe  =  13.232      Adjusted to redox equilibrium
      Specific Conductance (µS/cm,  25°C)  = 1191
                          Density (g/cm³)  =   0.99747
                               Volume (L)  =   1.00314
                        Viscosity (mPa s)  =   0.89124
                        Activity of water  =   1.000
                 Ionic strength (mol/kgw)  =   1.030e-02
                       Mass of water (kg)  =   1.000e+00
                 Total alkalinity (eq/kg)  =   1.002e-04
                         Temperature (°C)  =  25.00
                  Electrical balance (eq)  =   1.732e-13
 Percent error, 100*(Cat-|An|)/(Cat+|An|)  =   0.00
                               Iterations  =   2
                                  Total H  = 1.110124e+02
                                  Total O  = 5.550681e+01

----------------------------Distribution of species----------------------------

                                               Log       Log       Log    mole V
   Species          Molality    Activity  Molality  Activity     Gamma   cm³/mol

   OH-             2.786e-07   2.504e-07    -6.555    -6.601    -0.046     -4.03
   H+              4.429e-08   4.041e-08    -7.354    -7.394    -0.040      0.00
   H2O             5.551e+01   9.997e-01     1.744    -0.000     0.000     18.07
Cl            1.020e-02
   Cl-             1.020e-02   9.175e-03    -1.991    -2.037    -0.046     18.14
   HCl             1.264e-10   1.277e-10    -9.898    -9.894     0.004     20.36
Fe_tri        1.000e-04
   Fe_triOH+2      1.000e-04   6.582e-05    -4.000    -4.182    -0.182     (0)  
   Fe_tri+3        1.056e-09   4.121e-10    -8.976    -9.385    -0.409     (0)  
H(0)          0.000e+00
   H2              0.000e+00   0.000e+00   -44.401   -44.400     0.001     14.99
Na            1.000e-02
   Na+             1.000e-02   9.022e-03    -2.000    -2.045    -0.045     -1.38
O(0)          5.465e-04
   O2              2.732e-04   2.739e-04    -3.563    -3.562     0.001     30.40

------------------------------Saturation indices-------------------------------

  Phase               SI** log IAP   log K(298 K,   1 atm)

  Goethite         13.80     12.80   -1.00  Fe_triOOH
  H2(g)           -41.30    -44.40   -3.10  H2
  H2O(g)           -1.50     -0.00    1.50  H2O
  Halite           -5.65     -4.08    1.57  NaCl
  O2(g)            -0.67     -3.56   -2.89  O2	 Pressure   0.2 atm, phi 1.000

**For a gas, SI = log10(fugacity). Fugacity = pressure * phi / 1 atm.
  For ideal gases, phi = 1.

Reaction step 6.

Using solution 1.	
Using pure phase assemblage 1.	
Using kinetics 1.	

Kinetics 1.	

	Time step: 50400 seconds  (Incremented time: 86400 seconds)

	Rate name       Delta Moles Total Moles   Reactant        Coefficient

	Fe_di_ox         -0.000e+00   9.999e-01   Fe_di                    -1
	                                          Fe_tri                    1

-------------------------------Phase assemblage--------------------------------

                                                      Moles in assemblage
Phase               SI  log IAP  log K(T, P)   Initial       Final       Delta

O2(g)            -0.67    -3.56     -2.89    1.000e+01   1.000e+01  -7.105e-15

-----------------------------Solution composition------------------------------

	Elements           Molality       Moles

	Cl                1.020e-02   1.020e-02
	Fe_tri            1.000e-04   1.000e-04
	Na                1.000e-02   1.000e-02

----------------------------Description of solution----------------------------

                                       pH  =   7.394      Charge balance
                                       pe  =  13.232      Adjusted to redox equilibrium
      Specific Conductance (µS/cm,  25°C)  = 1191
                          Density (g/cm³)  =   0.99747
                               Volume (L)  =   1.00314
                        Viscosity (mPa s)  =   0.89124
                        Activity of water  =   1.000
                 Ionic strength (mol/kgw)  =   1.030e-02
                       Mass of water (kg)  =   1.000e+00
                 Total alkalinity (eq/kg)  =   1.002e-04
                         Temperature (°C)  =  25.00
                  Electrical balance (eq)  =   1.732e-13
 Percent error, 100*(Cat-|An|)/(Cat+|An|)  =   0.00
                               Iterations  =   2
                                  Total H  = 1.110124e+02
                                  Total O  = 5.550681e+01

----------------------------Distribution of species----------------------------

                                               Log       Log       Log    mole V
   Species          Molality    Activity  Molality  Activity     Gamma   cm³/mol

   OH-             2.786e-07   2.504e-07    -6.555    -6.601    -0.046     -4.03
   H+              4.429e-08   4.041e-08    -7.354    -7.394    -0.040      0.00
   H2O             5.551e+01   9.997e-01     1.744    -0.000     0.000     18.07
Cl            1.020e-02
   Cl-             1.020e-02   9.175e-03    -1.991    -2.037    -0.046     18.14
   HCl             1.264e-10   1.277e-10    -9.898    -9.894     0.004     20.36
Fe_tri        1.000e-04
   Fe_triOH+2      1.000e-04   6.582e-05    -4.000    -4.182    -0.182     (0)  
   Fe_tri+3        1.056e-09   4.121e-10    -8.976    -9.385    -0.409     (0)  
H(0)          0.000e+00
   H2              0.000e+00   0.000e+00   -44.401   -44.400     0.001     14.99
Na            1.000e-02
   Na+             1.000e-02   9.022e-03    -2.000    -2.045    -0.045     -1.38
O(0)          5.465e-04
   O2              2.732e-04   2.739e-04    -3.563    -3.562     0.001     30.40

------------------------------Saturation indices-------------------------------

  Phase               SI** log IAP   log K(298 K,   1 atm)

  Goethite         13.80     12.80   -1.00  Fe_triOOH
  H2(g)           -41.30    -44.40   -3.10  H2
  H2O(g)           -1.50     -0.00    1.50  H2O
  Halite           -5.65     -4.08    1.57  NaCl
  O2(g)            -0.67     -3.56   -2.89  O2	 Pressure   0.2 atm, phi 1.000

**For a gas, SI = log10(fugacity). Fugacity = pressure * phi / 1 atm.
  For ideal gases, phi = 1.

Reaction step 7.

Using solution 1.	
Using pure phase assemblage 1.	
Using kinetics 1.	

Kinetics 1.	

	Time step: 86400 seconds  (Incremented time: 172800 seconds)

	Rate name       Delta Moles Total Moles   Reactant        Coefficient

	Fe_di_ox         -0.000e+00   9.999e-01   Fe_di                    -1
	                                          Fe_tri                    1

-------------------------------Phase assemblage--------------------------------

                                                      Moles in assemblage
Phase               SI  log IAP  log K(T, P)   Initial       Final       Delta

O2(g)            -0.67    -3.56     -2.89    1.000e+01   1.000e+01  -7.105e-15

-----------------------------Solution composition------------------------------

	Elements           Molality       Moles

	Cl                1.020e-02   1.020e-02
	Fe_tri            1.000e-04   1.000e-04
	Na                1.000e-02   1.000e-02

----------------------------Description of solution----------------------------

                                       pH  =   7.394      Charge balance
                                       pe  =  13.232      Adjusted to redox equilibrium
      Specific Conductance (µS/cm,  25°C)  = 1191
                          Density (g/cm³)  =   0.99747
                               Volume (L)  =   1.00314
                        Viscosity (mPa s)  =   0.89124
                        Activity of water  =   1.000
                 Ionic strength (mol/kgw)  =   1.030e-02
                       Mass of water (kg)  =   1.000e+00
                 Total alkalinity (eq/kg)  =   1.002e-04
                         Temperature (°C)  =  25.00
                  Electrical balance (eq)  =   1.732e-13
 Percent error, 100*(Cat-|An|)/(Cat+|An|)  =   0.00
                               Iterations  =   2
                                  Total H  = 1.110124e+02
                                  Total O  = 5.550681e+01

----------------------------Distribution of species----------------------------

                                               Log       Log       Log    mole V
   Species          Molality    Activity  Molality  Activity     Gamma   cm³/mol

   OH-             2.786e-07   2.504e-07    -6.555    -6.601    -0.046     -4.03
   H+              4.429e-08   4.041e-08    -7.354    -7.394    -0.040      0.00
   H2O             5.551e+01   9.997e-01     1.744    -0.000     0.000     18.07
Cl            1.020e-02
   Cl-             1.020e-02   9.175e-03    -1.991    -2.037    -0.046     18.14
   HCl             1.264e-10   1.277e-10    -9.898    -9.894     0.004     20.36
Fe_tri        1.000e-04
   Fe_triOH+2      1.000e-04   6.582e-05    -4.000    -4.182    -0.182     (0)  
   Fe_tri+3        1.056e-09   4.121e-10    -8.976    -9.385    -0.409     (0)  
H(0)          0.000e+00
   H2              0.000e+00   0.000e+00   -44.401   -44.400     0.001     14.99
Na            1.000e-02
   Na+             1.000e-02   9.022e-03    -2.000    -2.045    -0.045     -1.38
O(0)          5.465e-04
   O2              2.732e-04   2.739e-04    -3.563    -3.562     0.001     30.40

------------------------------Saturation indices-------------------------------

  Phase               SI** log IAP   log K(298 K,   1 atm)

  Goethite         13.80     12.80   -1.00  Fe_triOOH
  H2(g)           -41.30    -44.40   -3.10  H2
  H2O(g)           -1.50     -0.00    1.50  H2O
  Halite           -5.65     -4.08    1.57  NaCl
  O2(g)            -0.67     -3.56   -2.89  O2	 Pressure   0.2 atm, phi 1.000

**For a gas, SI = log10(fugacity). Fugacity = pressure * phi / 1 atm.
  For ideal gases, phi = 1.

Reaction step 8.

Using solution 1.	
Using pure phase assemblage 1.	
Using kinetics 1.	

Kinetics 1.	

	Time step: 172800 seconds  (Incremented time: 345600 seconds)

	Rate name       Delta Moles Total Moles   Reactant        Coefficient

	Fe_di_ox         -0.000e+00   9.999e-01   Fe_di                    -1
	                                          Fe_tri                    1

-------------------------------Phase assemblage--------------------------------

                                                      Moles in assemblage
Phase               SI  log IAP  log K(T, P)   Initial       Final       Delta

O2(g)            -0.67    -3.56     -2.89    1.000e+01   1.000e+01  -7.105e-15

-----------------------------Solution composition------------------------------

	Elements           Molality       Moles

	Cl                1.020e-02   1.020e-02
	Fe_tri            1.000e-04   1.000e-04
	Na                1.000e-02   1.000e-02

----------------------------Description of solution----------------------------

                                       pH  =   7.394      Charge balance
                                       pe  =  13.232      Adjusted to redox equilibrium
      Specific Conductance (µS/cm,  25°C)  = 1191
                          Density (g/cm³)  =   0.99747
                               Volume (L)  =   1.00314
                        Viscosity (mPa s)  =   0.89124
                        Activity of water  =   1.000
                 Ionic strength (mol/kgw)  =   1.030e-02
                       Mass of water (kg)  =   1.000e+00
                 Total alkalinity (eq/kg)  =   1.002e-04
                         Temperature (°C)  =  25.00
                  Electrical balance (eq)  =   1.732e-13
 Percent error, 100*(Cat-|An|)/(Cat+|An|)  =   0.00
                               Iterations  =   2
                                  Total H  = 1.110124e+02
                                  Total O  = 5.550681e+01

----------------------------Distribution of species----------------------------

                                               Log       Log       Log    mole V
   Species          Molality    Activity  Molality  Activity     Gamma   cm³/mol

   OH-             2.786e-07   2.504e-07    -6.555    -6.601    -0.046     -4.03
   H+              4.429e-08   4.041e-08    -7.354    -7.394    -0.040      0.00
   H2O             5.551e+01   9.997e-01     1.744    -0.000     0.000     18.07
Cl            1.020e-02
   Cl-             1.020e-02   9.175e-03    -1.991    -2.037    -0.046     18.14
   HCl             1.264e-10   1.277e-10    -9.898    -9.894     0.004     20.36
Fe_tri        1.000e-04
   Fe_triOH+2      1.000e-04   6.582e-05    -4.000    -4.182    -0.182     (0)  
   Fe_tri+3        1.056e-09   4.121e-10    -8.976    -9.385    -0.409     (0)  
H(0)          0.000e+00
   H2              0.000e+00   0.000e+00   -44.401   -44.400     0.001     14.99
Na            1.000e-02
   Na+             1.000e-02   9.022e-03    -2.000    -2.045    -0.045     -1.38
O(0)          5.465e-04
   O2              2.732e-04   2.739e-04    -3.563    -3.562     0.001     30.40

------------------------------Saturation indices-------------------------------

  Phase               SI** log IAP   log K(298 K,   1 atm)

  Goethite         13.80     12.80   -1.00  Fe_triOOH
  H2(g)           -41.30    -44.40   -3.10  H2
  H2O(g)           -1.50     -0.00    1.50  H2O
  Halite           -5.65     -4.08    1.57  NaCl
  O2(g)            -0.67     -3.56   -2.89  O2	 Pressure   0.2 atm, phi 1.000

**For a gas, SI = log10(fugacity). Fugacity = pressure * phi / 1 atm.
  For ideal gases, phi = 1.

Reaction step 9.

Using solution 1.	
Using pure phase assemblage 1.	
Using kinetics 1.	

Kinetics 1.	

	Time step: 172800 seconds  (Incremented time: 518400 seconds)

	Rate name       Delta Moles Total Moles   Reactant        Coefficient

	Fe_di_ox         -0.000e+00   9.999e-01   Fe_di                    -1
	                                          Fe_tri                    1

-------------------------------Phase assemblage--------------------------------

                                                      Moles in assemblage
Phase               SI  log IAP  log K(T, P)   Initial       Final       Delta

O2(g)            -0.67    -3.56     -2.89    1.000e+01   1.000e+01  -7.105e-15

-----------------------------Solution composition------------------------------

	Elements           Molality       Moles

	Cl                1.020e-02   1.020e-02
	Fe_tri            1.000e-04   1.000e-04
	Na                1.000e-02   1.000e-02

----------------------------Description of solution----------------------------

                                       pH  =   7.394      Charge balance
                                       pe  =  13.232      Adjusted to redox equilibrium
      Specific Conductance (µS/cm,  25°C)  = 1191
                          Density (g/cm³)  =   0.99747
                               Volume (L)  =   1.00314
                        Viscosity (mPa s)  =   0.89124
                        Activity of water  =   1.000
                 Ionic strength (mol/kgw)  =   1.030e-02
                       Mass of water (kg)  =   1.000e+00
                 Total alkalinity (eq/kg)  =   1.002e-04
                         Temperature (°C)  =  25.00
                  Electrical balance (eq)  =   1.732e-13
 Percent error, 100*(Cat-|An|)/(Cat+|An|)  =   0.00
                               Iterations  =   2
                                  Total H  = 1.110124e+02
                                  Total O  = 5.550681e+01

----------------------------Distribution of species----------------------------

                                               Log       Log       Log    mole V
   Species          Molality    Activity  Molality  Activity     Gamma   cm³/mol

   OH-             2.786e-07   2.504e-07    -6.555    -6.601    -0.046     -4.03
   H+              4.429e-08   4.041e-08    -7.354    -7.394    -0.040      0.00
   H2O             5.551e+01   9.997e-01     1.744    -0.000     0.000     18.07
Cl            1.020e-02
   Cl-             1.020e-02   9.175e-03    -1.991    -2.037    -0.046     18.14
   HCl             1.264e-10   1.277e-10    -9.898    -9.894     0.004     20.36
Fe_tri        1.000e-04
   Fe_triOH+2      1.000e-04   6.582e-05    -4.000    -4.182    -0.182     (0)  
   Fe_tri+3        1.056e-09   4.121e-10    -8.976    -9.385    -0.409     (0)  
H(0)          0.000e+00
   H2              0.000e+00   0.000e+00   -44.401   -44.400     0.001     14.99
Na            1.000e-02
   Na+             1.000e-02   9.022e-03    -2.000    -2.045    -0.045     -1.38
O(0)          5.465e-04
   O2              2.732e-04   2.739e-04    -3.563    -3.562     0.001     30.40

------------------------------Saturation indices-------------------------------

  Phase               SI** log IAP   log K(298 K,   1 atm)

  Goethite         13.80     12.80   -1.00  Fe_triOOH
  H2(g)           -41.30    -44.40   -3.10  H2
  H2O(g)           -1.50     -0.00    1.50  H2O
  Halite           -5.65     -4.08    1.57  NaCl
  O2(g)            -0.67     -3.56   -2.89  O2	 Pressure   0.2 atm, phi 1.000

**For a gas, SI = log10(fugacity). Fugacity = pressure * phi / 1 atm.
  For ideal gases, phi = 1.

Reaction step 10.

Using solution 1.	
Using pure phase assemblage 1.	
Using kinetics 1.	

Kinetics 1.	

	Time step: 172800 seconds  (Incremented time: 691200 seconds)

	Rate name       Delta Moles Total Moles   Reactant        Coefficient

	Fe_di_ox         -0.000e+00   9.999e-01   Fe_di                    -1
	                                          Fe_tri                    1

-------------------------------Phase assemblage--------------------------------

                                                      Moles in assemblage
Phase               SI  log IAP  log K(T, P)   Initial       Final       Delta

O2(g)            -0.67    -3.56     -2.89    1.000e+01   1.000e+01  -7.105e-15

-----------------------------Solution composition------------------------------

	Elements           Molality       Moles

	Cl                1.020e-02   1.020e-02
	Fe_tri            1.000e-04   1.000e-04
	Na                1.000e-02   1.000e-02

----------------------------Description of solution----------------------------

                                       pH  =   7.394      Charge balance
                                       pe  =  13.232      Adjusted to redox equilibrium
      Specific Conductance (µS/cm,  25°C)  = 1191
                          Density (g/cm³)  =   0.99747
                               Volume (L)  =   1.00314
                        Viscosity (mPa s)  =   0.89124
                        Activity of water  =   1.000
                 Ionic strength (mol/kgw)  =   1.030e-02
                       Mass of water (kg)  =   1.000e+00
                 Total alkalinity (eq/kg)  =   1.002e-04
                         Temperature (°C)  =  25.00
                  Electrical balance (eq)  =   1.732e-13
 Percent error, 100*(Cat-|An|)/(Cat+|An|)  =   0.00
                               Iterations  =   2
                                  Total H  = 1.110124e+02
                                  Total O  = 5.550681e+01

----------------------------Distribution of species----------------------------

                                               Log       Log       Log    mole V
   Species          Molality    Activity  Molality  Activity     Gamma   cm³/mol

   OH-             2.786e-07   2.504e-07    -6.555    -6.601    -0.046     -4.03
   H+              4.429e-08   4.041e-08    -7.354    -7.394    -0.040      0.00
   H2O             5.551e+01   9.997e-01     1.744    -0.000     0.000     18.07
Cl            1.020e-02
   Cl-             1.020e-02   9.175e-03    -1.991    -2.037    -0.046     18.14
   HCl             1.264e-10   1.277e-10    -9.898    -9.894     0.004     20.36
Fe_tri        1.000e-04
   Fe_triOH+2      1.000e-04   6.582e-05    -4.000    -4.182    -0.182     (0)  
   Fe_tri+3        1.056e-09   4.121e-10    -8.976    -9.385    -0.409     (0)  
H(0)          0.000e+00
   H2              0.000e+00   0.000e+00   -44.401   -44.400     0.001     14.99
Na            1.000e-02
   Na+             1.000e-02   9.022e-03    -2.000    -2.045    -0.045     -1.38
O(0)          5.465e-04
   O2              2.732e-04   2.739e-04    -3.563    -3.562     0.001     30.40

------------------------------Saturation indices-------------------------------

  Phase               SI** log IAP   log K(298 K,   1 atm)

  Goethite         13.80     12.80   -1.00  Fe_triOOH
  H2(g)           -41.30    -44.40   -3.10  H2
  H2O(g)           -1.50     -0.00    1.50  H2O
  Halite           -5.65     -4.08    1.57  NaCl
  O2(g)            -0.67     -3.56   -2.89  O2	 Pressure   0.2 atm, phi 1.000

**For a gas, SI = log10(fugacity). Fugacity = pressure * phi / 1 atm.
  For ideal gases, phi = 1.

Reaction step 11.

Using solution 1.	
Using pure phase assemblage 1.	
Using kinetics 1.	

Kinetics 1.	

	Time step: 172800 seconds  (Incremented time: 864000 seconds)

	Rate name       Delta Moles Total Moles   Reactant        Coefficient

	Fe_di_ox         -0.000e+00   9.999e-01   Fe_di                    -1
	                                          Fe_tri                    1

-------------------------------Phase assemblage--------------------------------

                                                      Moles in assemblage
Phase               SI  log IAP  log K(T, P)   Initial       Final       Delta

O2(g)            -0.67    -3.56     -2.89    1.000e+01   1.000e+01  -7.105e-15

-----------------------------Solution composition------------------------------

	Elements           Molality       Moles

	Cl                1.020e-02   1.020e-02
	Fe_tri            1.000e-04   1.000e-04
	Na                1.000e-02   1.000e-02

----------------------------Description of solution----------------------------

                                       pH  =   7.394      Charge balance
                                       pe  =  13.232      Adjusted to redox equilibrium
      Specific Conductance (µS/cm,  25°C)  = 1191
                          Density (g/cm³)  =   0.99747
                               Volume (L)  =   1.00314
                        Viscosity (mPa s)  =   0.89124
                        Activity of water  =   1.000
                 Ionic strength (mol/kgw)  =   1.030e-02
                       Mass of water (kg)  =   1.000e+00
                 Total alkalinity (eq/kg)  =   1.002e-04
                         Temperature (°C)  =  25.00
                  Electrical balance (eq)  =   1.732e-13
 Percent error, 100*(Cat-|An|)/(Cat+|An|)  =   0.00
                               Iterations  =   2
                                  Total H  = 1.110124e+02
                                  Total O  = 5.550681e+01

----------------------------Distribution of species----------------------------

                                               Log       Log       Log    mole V
   Species          Molality    Activity  Molality  Activity     Gamma   cm³/mol

   OH-             2.786e-07   2.504e-07    -6.555    -6.601    -0.046     -4.03
   H+              4.429e-08   4.041e-08    -7.354    -7.394    -0.040      0.00
   H2O             5.551e+01   9.997e-01     1.744    -0.000     0.000     18.07
Cl            1.020e-02
   Cl-             1.020e-02   9.175e-03    -1.991    -2.037    -0.046     18.14
   HCl             1.264e-10   1.277e-10    -9.898    -9.894     0.004     20.36
Fe_tri        1.000e-04
   Fe_triOH+2      1.000e-04   6.582e-05    -4.000    -4.182    -0.182     (0)  
   Fe_tri+3        1.056e-09   4.121e-10    -8.976    -9.385    -0.409     (0)  
H(0)          0.000e+00
   H2              0.000e+00   0.000e+00   -44.401   -44.400     0.001     14.99
Na            1.000e-02
   Na+             1.000e-02   9.022e-03    -2.000    -2.045    -0.045     -1.38
O(0)          5.465e-04
   O2              2.732e-04   2.739e-04    -3.563    -3.562     0.001     30.40

------------------------------Saturation indices-------------------------------

  Phase               SI** log IAP   log K(298 K,   1 atm)

  Goethite         13.80     12.80   -1.00  Fe_triOOH
  H2(g)           -41.30    -44.40   -3.10  H2
  H2O(g)           -1.50     -0.00    1.50  H2O
  Halite           -5.65     -4.08    1.57  NaCl
  O2(g)            -0.67     -3.56   -2.89  O2	 Pressure   0.2 atm, phi 1.000

**For a gas, SI = log10(fugacity). Fugacity = pressure * phi / 1 atm.
  For ideal gases, phi = 1.

------------------
End of simulation.
------------------

------------------------------------
Reading input data for simulation 3.
------------------------------------

----------------------------------
End of Run after 0.095483 Seconds.
----------------------------------

