   Input file: /Users/rowanterra/Desktop/phreeqc3_rrt/manual_examples/output/ex2/ex2.pqi
  Output file: /Users/rowanterra/Desktop/phreeqc3_rrt/manual_examples/output/ex2/ex2.pqi.out
Database file: /Users/rowanterra/Desktop/phreeqc3_rrt/database/phreeqc.dat

------------------
Reading data base.
------------------

	SOLUTION_MASTER_SPECIES
	SOLUTION_SPECIES
	PHASES
	GAS_BINARY_PARAMETERS
	EXCHANGE_MASTER_SPECIES
	EXCHANGE_SPECIES
	SURFACE_MASTER_SPECIES
	SURFACE_SPECIES
	MEAN_GAMMAS
	RATES
	END
------------------------------------
Reading input data for simulation 1.
------------------------------------

	DATABASE /Users/rowanterra/Desktop/phreeqc3_rrt/database/phreeqc.dat
	TITLE Example 2.--Temperature dependence of solubility
	                  of gypsum and anhydrite
	SOLUTION 1 Pure water
	        pH      7.0
	        temp    25.0
	EQUILIBRIUM_PHASES 1
	        Gypsum          0.0     1.0
	        Anhydrite       0.0     1.0
	REACTION_TEMPERATURE 1
	        25.0 75.0 in 51 steps
	SELECTED_OUTPUT
	        file   ex2.sel
	        temperature
	        si     anhydrite gypsum
	USER_GRAPH 1 Example 2
	        -headings Temperature Gypsum Anhydrite
	          -chart_title "Gypsum-Anhydrite Stability"
	          -axis_scale x_axis 25 75 5 0
	          -axis_scale y_axis auto 0.05 0.1
	          -axis_titles "Temperature, in degrees celsius" "Saturation index"
	          -initial_solutions false
	  -start
	  10 graph_x TC
	  20 graph_y SI("Gypsum") SI("Anhydrite")
	  -end
	END
-----
TITLE
-----

 Example 2.--Temperature dependence of solubility
                  of gypsum and anhydrite

-------------------------------------------
Beginning of initial solution calculations.
-------------------------------------------

Initial solution 1.	Pure water

-----------------------------Solution composition------------------------------

	Elements           Molality       Moles

	Pure water     

----------------------------Description of solution----------------------------

                                       pH  =   7.000    
                                       pe  =   4.000    
      Specific Conductance (µS/cm,  25°C)  = 0
                          Density (g/cm³)  =   0.99704
                               Volume (L)  =   1.00297
                        Viscosity (mPa s)  =   0.89002
                        Activity of water  =   1.000
                 Ionic strength (mol/kgw)  =   1.007e-07
                       Mass of water (kg)  =   1.000e+00
                 Total alkalinity (eq/kg)  =   1.217e-09
                         Temperature (°C)  =  25.00
                  Electrical balance (eq)  =  -1.217e-09
 Percent error, 100*(Cat-|An|)/(Cat+|An|)  =  -0.60
                               Iterations  =   0
                                  Total H  = 1.110124e+02
                                  Total O  = 5.550622e+01

----------------------------Distribution of species----------------------------

                                               Log       Log       Log    mole V
   Species          Molality    Activity  Molality  Activity     Gamma   cm³/mol

   OH-             1.013e-07   1.012e-07    -6.995    -6.995    -0.000     -4.14
   H+              1.001e-07   1.000e-07    -7.000    -7.000    -0.000      0.00
   H2O             5.551e+01   1.000e+00     1.744     0.000     0.000     18.07
H(0)          1.416e-25
   H2              7.079e-26   7.079e-26   -25.150   -25.150     0.000     14.99
O(0)          0.000e+00
   O2              0.000e+00   0.000e+00   -42.063   -42.063     0.000     30.40

------------------------------Saturation indices-------------------------------

  Phase               SI** log IAP   log K(298 K,   1 atm)

  H2(g)           -22.05    -25.15   -3.10  H2
  H2O(g)           -1.50      0.00    1.50  H2O
  O2(g)           -39.17    -42.06   -2.89  O2

**For a gas, SI = log10(fugacity). Fugacity = pressure * phi / 1 atm.
  For ideal gases, phi = 1.

-----------------------------------------
Beginning of batch-reaction calculations.
-----------------------------------------

Reaction step 1.

Using solution 1.	Pure water
Using pure phase assemblage 1.	
Using temperature 1.	

-------------------------------Phase assemblage--------------------------------

                                                      Moles in assemblage
Phase               SI  log IAP  log K(T, P)   Initial       Final       Delta

Anhydrite        -0.23    -4.55     -4.31    1.000e+00           0  -1.000e+00
Gypsum            0.00    -4.55     -4.55    1.000e+00   1.986e+00   9.856e-01

-----------------------------Solution composition------------------------------

	Elements           Molality       Moles

	Ca                1.493e-02   1.440e-02
	S                 1.493e-02   1.440e-02

----------------------------Description of solution----------------------------

                                       pH  =   7.068      Charge balance
                                       pe  =  10.738      Adjusted to redox equilibrium
      Specific Conductance (µS/cm,  25°C)  = 2525
                          Density (g/cm³)  =   0.99907
                               Volume (L)  =   0.96735
                        Viscosity (mPa s)  =   0.89921
                        Activity of water  =   1.000
                 Ionic strength (mol/kgw)  =   4.400e-02
                       Mass of water (kg)  =   9.645e-01
                 Total alkalinity (eq/kg)  =   1.261e-09
                         Temperature (°C)  =  25.00
                  Electrical balance (eq)  =  -1.217e-09
 Percent error, 100*(Cat-|An|)/(Cat+|An|)  =  -0.00
                               Iterations  =  17
                                  Total H  = 1.070700e+02
                                  Total O  = 5.359260e+01

----------------------------Distribution of species----------------------------

                                               Log       Log       Log    mole V
   Species          Molality    Activity  Molality  Activity     Gamma   cm³/mol

   OH-             1.444e-07   1.184e-07    -6.841    -6.927    -0.086     -3.89
   H+              9.950e-08   8.546e-08    -7.002    -7.068    -0.066      0.00
   H2O             5.551e+01   9.996e-01     1.744    -0.000     0.000     18.07
Ca            1.493e-02
   Ca+2            1.100e-02   5.375e-03    -1.959    -2.270    -0.311    -17.65
   CaSO4           3.929e-03   3.946e-03    -2.406    -2.404     0.002      7.22
   CaOH+           1.259e-08   1.043e-08    -7.900    -7.982    -0.082     (0)  
   CaHSO4+         3.411e-09   2.826e-09    -8.467    -8.549    -0.082     (0)  
H(0)          3.416e-39
   H2              1.708e-39   1.726e-39   -38.768   -38.763     0.005     14.99
O(0)          2.881e-15
   O2              1.441e-15   1.455e-15   -14.841   -14.837     0.004     30.40
S(-2)         0.000e+00
   HS-             0.000e+00   0.000e+00  -118.062  -118.148    -0.086     20.77
   H2S             0.000e+00   0.000e+00  -118.279  -118.274     0.004     36.27
   S-2             0.000e+00   0.000e+00  -123.679  -123.998    -0.318     (0)  
   (H2S)2          0.000e+00   0.000e+00  -237.832  -237.827     0.004     30.09
S(6)          1.493e-02
   SO4-2           1.100e-02   5.264e-03    -1.959    -2.279    -0.320     14.91
   CaSO4           3.929e-03   3.946e-03    -2.406    -2.404     0.002      7.22
   HSO4-           5.279e-08   4.374e-08    -7.277    -7.359    -0.082     40.44
   CaHSO4+         3.411e-09   2.826e-09    -8.467    -8.549    -0.082     (0)  

------------------------------Saturation indices-------------------------------

  Phase               SI** log IAP   log K(298 K,   1 atm)

  Anhydrite        -0.23     -4.55   -4.31  CaSO4
  Gypsum            0.00     -4.55   -4.55  CaSO4:2H2O
  H2(g)           -35.66    -38.76   -3.10  H2
  H2O(g)           -1.50     -0.00    1.50  H2O
  H2S(g)         -117.28   -125.22   -7.94  H2S
  O2(g)           -11.94    -14.84   -2.89  O2
  Sulfur          -87.54    -82.66    4.88  S

**For a gas, SI = log10(fugacity). Fugacity = pressure * phi / 1 atm.
  For ideal gases, phi = 1.

Reaction step 2.

Using solution 1.	Pure water
Using pure phase assemblage 1.	
Using temperature 1.	

-------------------------------Phase assemblage--------------------------------

                                                      Moles in assemblage
Phase               SI  log IAP  log K(T, P)   Initial       Final       Delta

Anhydrite        -0.22    -4.55     -4.33    1.000e+00           0  -1.000e+00
Gypsum            0.00    -4.55     -4.55    1.000e+00   1.986e+00   9.856e-01

-----------------------------Solution composition------------------------------

	Elements           Molality       Moles

	Ca                1.497e-02   1.444e-02
	S                 1.497e-02   1.444e-02

----------------------------Description of solution----------------------------

                                       pH  =   7.054      Charge balance
                                       pe  =  10.667      Adjusted to redox equilibrium
      Specific Conductance (µS/cm,  26°C)  = 2570
                          Density (g/cm³)  =   0.99881
                               Volume (L)  =   0.96760
                        Viscosity (mPa s)  =   0.87909
                        Activity of water  =   1.000
                 Ionic strength (mol/kgw)  =   4.379e-02
                       Mass of water (kg)  =   9.645e-01
                 Total alkalinity (eq/kg)  =   1.261e-09
                         Temperature (°C)  =  26.00
                  Electrical balance (eq)  =  -1.217e-09
 Percent error, 100*(Cat-|An|)/(Cat+|An|)  =  -0.00
                               Iterations  =  17
                                  Total H  = 1.070702e+02
                                  Total O  = 5.359285e+01

----------------------------Distribution of species----------------------------

                                               Log       Log       Log    mole V
   Species          Molality    Activity  Molality  Activity     Gamma   cm³/mol

   OH-             1.509e-07   1.237e-07    -6.821    -6.908    -0.086     -3.86
   H+              1.027e-07   8.823e-08    -6.988    -7.054    -0.066      0.00
   H2O             5.551e+01   9.996e-01     1.744    -0.000     0.000     18.07
Ca            1.497e-02
   Ca+2            1.095e-02   5.349e-03    -1.961    -2.272    -0.311    -17.64
   CaSO4           4.023e-03   4.041e-03    -2.395    -2.393     0.002      7.32
   CaOH+           1.214e-08   1.006e-08    -7.916    -7.997    -0.082     (0)  
   CaHSO4+         3.566e-09   2.955e-09    -8.448    -8.529    -0.082     (0)  
H(0)          5.000e-39
   H2              2.500e-39   2.527e-39   -38.602   -38.597     0.005     15.06
O(0)          2.878e-15
   O2              1.439e-15   1.454e-15   -14.842   -14.838     0.004     30.48
S(-2)         0.000e+00
   HS-             0.000e+00   0.000e+00  -117.518  -117.604    -0.086     20.82
   H2S             0.000e+00   0.000e+00  -117.734  -117.730     0.004     36.51
   S-2             0.000e+00   0.000e+00  -123.120  -123.438    -0.318     (0)  
   (H2S)2          0.000e+00   0.000e+00  -236.732  -236.727     0.004     30.05
S(6)          1.497e-02
   SO4-2           1.095e-02   5.240e-03    -1.961    -2.281    -0.320     15.04
   CaSO4           4.023e-03   4.041e-03    -2.395    -2.393     0.002      7.32
   HSO4-           5.545e-08   4.594e-08    -7.256    -7.338    -0.082     40.51
   CaHSO4+         3.566e-09   2.955e-09    -8.448    -8.529    -0.082     (0)  

------------------------------Saturation indices-------------------------------

  Phase               SI** log IAP   log K(299 K,   1 atm)

  Anhydrite        -0.22     -4.55   -4.33  CaSO4
  Gypsum            0.00     -4.55   -4.55  CaSO4:2H2O
  H2(g)           -35.50    -38.60   -3.10  H2
  H2O(g)           -1.48     -0.00    1.48  H2O
  H2S(g)         -116.72   -124.66   -7.93  H2S
  O2(g)           -11.94    -14.84   -2.90  O2
  Sulfur          -87.15    -82.29    4.86  S

**For a gas, SI = log10(fugacity). Fugacity = pressure * phi / 1 atm.
  For ideal gases, phi = 1.

Reaction step 3.

Using solution 1.	Pure water
Using pure phase assemblage 1.	
Using temperature 1.	

-------------------------------Phase assemblage--------------------------------

                                                      Moles in assemblage
Phase               SI  log IAP  log K(T, P)   Initial       Final       Delta

Anhydrite        -0.21    -4.56     -4.35    1.000e+00           0  -1.000e+00
Gypsum            0.00    -4.56     -4.56    1.000e+00   1.986e+00   9.855e-01

-----------------------------Solution composition------------------------------

	Elements           Molality       Moles

	Ca                1.501e-02   1.448e-02
	S                 1.501e-02   1.448e-02

----------------------------Description of solution----------------------------

                                       pH  =   7.041      Charge balance
                                       pe  =  10.597      Adjusted to redox equilibrium
      Specific Conductance (µS/cm,  27°C)  = 2615
                          Density (g/cm³)  =   0.99854
                               Volume (L)  =   0.96787
                        Viscosity (mPa s)  =   0.85968
                        Activity of water  =   1.000
                 Ionic strength (mol/kgw)  =   4.357e-02
                       Mass of water (kg)  =   9.645e-01
                 Total alkalinity (eq/kg)  =   1.261e-09
                         Temperature (°C)  =  27.00
                  Electrical balance (eq)  =  -1.205e-09
 Percent error, 100*(Cat-|An|)/(Cat+|An|)  =  -0.00
                               Iterations  =  16
                                  Total H  = 1.070703e+02
                                  Total O  = 5.359308e+01

----------------------------Distribution of species----------------------------

                                               Log       Log       Log    mole V
   Species          Molality    Activity  Molality  Activity     Gamma   cm³/mol

   OH-             1.575e-07   1.292e-07    -6.803    -6.889    -0.086     -3.82
   H+              1.060e-07   9.107e-08    -6.975    -7.041    -0.066      0.00
   H2O             5.551e+01   9.996e-01     1.744    -0.000     0.000     18.08
Ca            1.501e-02
   Ca+2            1.089e-02   5.323e-03    -1.963    -2.274    -0.311    -17.63
   CaSO4           4.117e-03   4.136e-03    -2.385    -2.383     0.002      7.42
   CaOH+           1.170e-08   9.697e-09    -7.932    -8.013    -0.082     (0)  
   CaHSO4+         3.727e-09   3.088e-09    -8.429    -8.510    -0.082     (0)  
H(0)          7.287e-39
   H2              3.644e-39   3.682e-39   -38.438   -38.434     0.005     15.13
O(0)          2.883e-15
   O2              1.442e-15   1.456e-15   -14.841   -14.837     0.004     30.55
S(-2)         0.000e+00
   HS-             0.000e+00   0.000e+00  -116.981  -117.068    -0.086     20.86
   H2S             0.000e+00   0.000e+00  -117.196  -117.192     0.004     36.75
   S-2             0.000e+00   0.000e+00  -122.568  -122.886    -0.318     (0)  
   (H2S)2          0.000e+00   0.000e+00  -235.645  -235.641     0.004     30.00
S(6)          1.501e-02
   SO4-2           1.089e-02   5.215e-03    -1.963    -2.283    -0.320     15.17
   CaSO4           4.117e-03   4.136e-03    -2.385    -2.383     0.002      7.42
   HSO4-           5.824e-08   4.825e-08    -7.235    -7.317    -0.082     40.57
   CaHSO4+         3.727e-09   3.088e-09    -8.429    -8.510    -0.082     (0)  

------------------------------Saturation indices-------------------------------

  Phase               SI** log IAP   log K(300 K,   1 atm)

  Anhydrite        -0.21     -4.56   -4.35  CaSO4
  Gypsum            0.00     -4.56   -4.56  CaSO4:2H2O
  H2(g)           -35.33    -38.43   -3.10  H2
  H2O(g)           -1.45     -0.00    1.45  H2O
  H2S(g)         -116.18   -124.11   -7.93  H2S
  O2(g)           -11.93    -14.84   -2.91  O2
  Sulfur          -86.75    -81.92    4.84  S

**For a gas, SI = log10(fugacity). Fugacity = pressure * phi / 1 atm.
  For ideal gases, phi = 1.

Reaction step 4.

Using solution 1.	Pure water
Using pure phase assemblage 1.	
Using temperature 1.	

-------------------------------Phase assemblage--------------------------------

                                                      Moles in assemblage
Phase               SI  log IAP  log K(T, P)   Initial       Final       Delta

Anhydrite        -0.20    -4.56     -4.36    1.000e+00           0  -1.000e+00
Gypsum            0.00    -4.56     -4.56    1.000e+00   1.985e+00   9.855e-01

-----------------------------Solution composition------------------------------

	Elements           Molality       Moles

	Ca                1.505e-02   1.451e-02
	S                 1.505e-02   1.451e-02

----------------------------Description of solution----------------------------

                                       pH  =   7.027      Charge balance
                                       pe  =  10.528      Adjusted to redox equilibrium
      Specific Conductance (µS/cm,  28°C)  = 2659
                          Density (g/cm³)  =   0.99827
                               Volume (L)  =   0.96815
                        Viscosity (mPa s)  =   0.84095
                        Activity of water  =   1.000
                 Ionic strength (mol/kgw)  =   4.334e-02
                       Mass of water (kg)  =   9.645e-01
                 Total alkalinity (eq/kg)  =   1.261e-09
                         Temperature (°C)  =  28.00
                  Electrical balance (eq)  =  -1.208e-09
 Percent error, 100*(Cat-|An|)/(Cat+|An|)  =  -0.00
                               Iterations  =  19
                                  Total H  = 1.070705e+02
                                  Total O  = 5.359329e+01

----------------------------Distribution of species----------------------------

                                               Log       Log       Log    mole V
   Species          Molality    Activity  Molality  Activity     Gamma   cm³/mol

   OH-             1.644e-07   1.349e-07    -6.784    -6.870    -0.086     -3.79
   H+              1.094e-07   9.398e-08    -6.961    -7.027    -0.066      0.00
   H2O             5.551e+01   9.996e-01     1.744    -0.000     0.000     18.08
Ca            1.505e-02
   Ca+2            1.084e-02   5.296e-03    -1.965    -2.276    -0.311    -17.62
   CaSO4           4.212e-03   4.231e-03    -2.376    -2.374     0.002      7.52
   CaOH+           1.128e-08   9.348e-09    -7.948    -8.029    -0.082     (0)  
   CaHSO4+         3.893e-09   3.226e-09    -8.410    -8.491    -0.082     (0)  
H(0)          1.057e-38
   H2              5.286e-39   5.342e-39   -38.277   -38.272     0.005     15.20
O(0)          2.899e-15
   O2              1.450e-15   1.464e-15   -14.839   -14.834     0.004     30.63
S(-2)         0.000e+00
   HS-             0.000e+00   0.000e+00  -116.452  -116.538    -0.086     20.90
   H2S             0.000e+00   0.000e+00  -116.666  -116.661     0.004     36.98
   S-2             0.000e+00   0.000e+00  -122.023  -122.341    -0.318     (0)  
   (H2S)2          0.000e+00   0.000e+00  -234.573  -234.569     0.004     29.96
S(6)          1.505e-02
   SO4-2           1.084e-02   5.189e-03    -1.965    -2.285    -0.320     15.29
   CaSO4           4.212e-03   4.231e-03    -2.376    -2.374     0.002      7.52
   HSO4-           6.114e-08   5.066e-08    -7.214    -7.295    -0.082     40.63
   CaHSO4+         3.893e-09   3.226e-09    -8.410    -8.491    -0.082     (0)  

------------------------------Saturation indices-------------------------------

  Phase               SI** log IAP   log K(301 K,   1 atm)

  Anhydrite        -0.20     -4.56   -4.36  CaSO4
  Gypsum            0.00     -4.56   -4.56  CaSO4:2H2O
  H2(g)           -35.17    -38.27   -3.10  H2
  H2O(g)           -1.43     -0.00    1.43  H2O
  H2S(g)         -115.63   -123.57   -7.93  H2S
  O2(g)           -11.92    -14.83   -2.91  O2
  Sulfur          -86.36    -81.55    4.81  S

**For a gas, SI = log10(fugacity). Fugacity = pressure * phi / 1 atm.
  For ideal gases, phi = 1.

Reaction step 5.

Using solution 1.	Pure water
Using pure phase assemblage 1.	
Using temperature 1.	

-------------------------------Phase assemblage--------------------------------

                                                      Moles in assemblage
Phase               SI  log IAP  log K(T, P)   Initial       Final       Delta

Anhydrite        -0.19    -4.57     -4.38    1.000e+00           0  -1.000e+00
Gypsum            0.00    -4.57     -4.57    1.000e+00   1.985e+00   9.855e-01

-----------------------------Solution composition------------------------------

	Elements           Molality       Moles

	Ca                1.508e-02   1.455e-02
	S                 1.508e-02   1.455e-02

----------------------------Description of solution----------------------------

                                       pH  =   7.013      Charge balance
                                       pe  =  10.458      Adjusted to redox equilibrium
      Specific Conductance (µS/cm,  29°C)  = 2702
                          Density (g/cm³)  =   0.99798
                               Volume (L)  =   0.96843
                        Viscosity (mPa s)  =   0.82287
                        Activity of water  =   1.000
                 Ionic strength (mol/kgw)  =   4.310e-02
                       Mass of water (kg)  =   9.645e-01
                 Total alkalinity (eq/kg)  =   1.261e-09
                         Temperature (°C)  =  29.00
                  Electrical balance (eq)  =  -1.210e-09
 Percent error, 100*(Cat-|An|)/(Cat+|An|)  =  -0.00
                               Iterations  =  21
                                  Total H  = 1.070706e+02
                                  Total O  = 5.359349e+01

----------------------------Distribution of species----------------------------

                                               Log       Log       Log    mole V
   Species          Molality    Activity  Molality  Activity     Gamma   cm³/mol

   OH-             1.715e-07   1.407e-07    -6.766    -6.852    -0.086     -3.76
   H+              1.129e-07   9.697e-08    -6.947    -7.013    -0.066      0.00
   H2O             5.551e+01   9.996e-01     1.744    -0.000     0.000     18.09
Ca            1.508e-02
   Ca+2            1.078e-02   5.268e-03    -1.968    -2.278    -0.311    -17.61
   CaSO4           4.306e-03   4.326e-03    -2.366    -2.364     0.002      7.62
   CaOH+           1.088e-08   9.012e-09    -7.964    -8.045    -0.082     (0)  
   CaHSO4+         4.065e-09   3.368e-09    -8.391    -8.473    -0.082     (0)  
H(0)          1.539e-38
   H2              7.696e-39   7.777e-39   -38.114   -38.109     0.005     15.27
O(0)          2.879e-15
   O2              1.440e-15   1.454e-15   -14.842   -14.837     0.004     30.70
S(-2)         0.000e+00
   HS-             0.000e+00   0.000e+00  -115.916  -116.002    -0.086     20.94
   H2S             0.000e+00   0.000e+00  -116.128  -116.124     0.004     37.21
   S-2             0.000e+00   0.000e+00  -121.471  -121.789    -0.318     (0)  
   (H2S)2          0.000e+00   0.000e+00  -233.488  -233.483     0.004     29.91
S(6)          1.508e-02
   SO4-2           1.078e-02   5.162e-03    -1.968    -2.287    -0.320     15.40
   CaSO4           4.306e-03   4.326e-03    -2.366    -2.364     0.002      7.62
   HSO4-           6.418e-08   5.318e-08    -7.193    -7.274    -0.082     40.69
   CaHSO4+         4.065e-09   3.368e-09    -8.391    -8.473    -0.082     (0)  

------------------------------Saturation indices-------------------------------

  Phase               SI** log IAP   log K(302 K,   1 atm)

  Anhydrite        -0.19     -4.57   -4.38  CaSO4
  Gypsum            0.00     -4.57   -4.57  CaSO4:2H2O
  H2(g)           -35.00    -38.11   -3.11  H2
  H2O(g)           -1.40     -0.00    1.40  H2O
  H2S(g)         -115.09   -123.02   -7.93  H2S
  O2(g)           -11.92    -14.84   -2.92  O2
  Sulfur          -85.97    -81.18    4.79  S

**For a gas, SI = log10(fugacity). Fugacity = pressure * phi / 1 atm.
  For ideal gases, phi = 1.

Reaction step 6.

Using solution 1.	Pure water
Using pure phase assemblage 1.	
Using temperature 1.	

-------------------------------Phase assemblage--------------------------------

                                                      Moles in assemblage
Phase               SI  log IAP  log K(T, P)   Initial       Final       Delta

Anhydrite        -0.18    -4.57     -4.39    1.000e+00           0  -1.000e+00
Gypsum            0.00    -4.57     -4.57    1.000e+00   1.985e+00   9.854e-01

-----------------------------Solution composition------------------------------

	Elements           Molality       Moles

	Ca                1.511e-02   1.458e-02
	S                 1.511e-02   1.458e-02

----------------------------Description of solution----------------------------

                                       pH  =   7.000      Charge balance
                                       pe  =  10.389      Adjusted to redox equilibrium
      Specific Conductance (µS/cm,  30°C)  = 2744
                          Density (g/cm³)  =   0.99768
                               Volume (L)  =   0.96872
                        Viscosity (mPa s)  =   0.80541
                        Activity of water  =   1.000
                 Ionic strength (mol/kgw)  =   4.285e-02
                       Mass of water (kg)  =   9.645e-01
                 Total alkalinity (eq/kg)  =   1.261e-09
                         Temperature (°C)  =  30.00
                  Electrical balance (eq)  =  -1.209e-09
 Percent error, 100*(Cat-|An|)/(Cat+|An|)  =  -0.00
                               Iterations  =  16
                                  Total H  = 1.070707e+02
                                  Total O  = 5.359368e+01

----------------------------Distribution of species----------------------------

                                               Log       Log       Log    mole V
   Species          Molality    Activity  Molality  Activity     Gamma   cm³/mol

   OH-             1.788e-07   1.467e-07    -6.748    -6.834    -0.086     -3.73
   H+              1.165e-07   1.000e-07    -6.934    -7.000    -0.066      0.00
   H2O             5.551e+01   9.996e-01     1.744    -0.000     0.000     18.09
Ca            1.511e-02
   Ca+2            1.071e-02   5.239e-03    -1.970    -2.281    -0.311    -17.60
   CaSO4           4.401e-03   4.420e-03    -2.356    -2.355     0.002      7.71
   CaOH+           1.048e-08   8.688e-09    -7.979    -8.061    -0.082     (0)  
   CaHSO4+         4.242e-09   3.515e-09    -8.372    -8.454    -0.082     (0)  
H(0)          2.230e-38
   H2              1.115e-38   1.127e-38   -37.953   -37.948     0.004     15.34
O(0)          2.870e-15
   O2              1.435e-15   1.449e-15   -14.843   -14.839     0.004     30.77
S(-2)         0.000e+00
   HS-             0.000e+00   0.000e+00  -115.387  -115.473    -0.086     20.97
   H2S             0.000e+00   0.000e+00  -115.598  -115.594     0.004     37.42
   S-2             0.000e+00   0.000e+00  -120.927  -121.245    -0.318     (0)  
   (H2S)2          0.000e+00   0.000e+00  -232.417  -232.413     0.004     29.87
S(6)          1.511e-02
   SO4-2           1.071e-02   5.134e-03    -1.970    -2.290    -0.319     15.51
   CaSO4           4.401e-03   4.420e-03    -2.356    -2.355     0.002      7.71
   HSO4-           6.735e-08   5.581e-08    -7.172    -7.253    -0.082     40.75
   CaHSO4+         4.242e-09   3.515e-09    -8.372    -8.454    -0.082     (0)  

------------------------------Saturation indices-------------------------------

  Phase               SI** log IAP   log K(303 K,   1 atm)

  Anhydrite        -0.18     -4.57   -4.39  CaSO4
  Gypsum            0.00     -4.57   -4.57  CaSO4:2H2O
  H2(g)           -34.84    -37.95   -3.11  H2
  H2O(g)           -1.38     -0.00    1.38  H2O
  H2S(g)         -114.55   -122.47   -7.93  H2S
  O2(g)           -11.91    -14.84   -2.93  O2
  Sulfur          -85.58    -80.82    4.77  S

**For a gas, SI = log10(fugacity). Fugacity = pressure * phi / 1 atm.
  For ideal gases, phi = 1.

Reaction step 7.

Using solution 1.	Pure water
Using pure phase assemblage 1.	
Using temperature 1.	

-------------------------------Phase assemblage--------------------------------

                                                      Moles in assemblage
Phase               SI  log IAP  log K(T, P)   Initial       Final       Delta

Anhydrite        -0.16    -4.58     -4.41    1.000e+00           0  -1.000e+00
Gypsum            0.00    -4.58     -4.58    1.000e+00   1.985e+00   9.854e-01

-----------------------------Solution composition------------------------------

	Elements           Molality       Moles

	Ca                1.514e-02   1.461e-02
	S                 1.514e-02   1.461e-02

----------------------------Description of solution----------------------------

                                       pH  =   6.986      Charge balance
                                       pe  =  10.322      Adjusted to redox equilibrium
      Specific Conductance (µS/cm,  31°C)  = 2785
                          Density (g/cm³)  =   0.99738
                               Volume (L)  =   0.96903
                        Viscosity (mPa s)  =   0.78853
                        Activity of water  =   1.000
                 Ionic strength (mol/kgw)  =   4.259e-02
                       Mass of water (kg)  =   9.645e-01
                 Total alkalinity (eq/kg)  =   1.261e-09
                         Temperature (°C)  =  31.00
                  Electrical balance (eq)  =  -1.213e-09
 Percent error, 100*(Cat-|An|)/(Cat+|An|)  =  -0.00
                               Iterations  =  21
                                  Total H  = 1.070709e+02
                                  Total O  = 5.359385e+01

----------------------------Distribution of species----------------------------

                                               Log       Log       Log    mole V
   Species          Molality    Activity  Molality  Activity     Gamma   cm³/mol

   OH-             1.863e-07   1.529e-07    -6.730    -6.816    -0.086     -3.70
   H+              1.201e-07   1.032e-07    -6.920    -6.986    -0.066      0.00
   H2O             5.551e+01   9.996e-01     1.744    -0.000     0.000     18.10
Ca            1.514e-02
   Ca+2            1.065e-02   5.209e-03    -1.973    -2.283    -0.311    -17.59
   CaSO4           4.495e-03   4.515e-03    -2.347    -2.345     0.002      7.80
   CaOH+           1.011e-08   8.376e-09    -7.995    -8.077    -0.082     (0)  
   CaHSO4+         4.424e-09   3.667e-09    -8.354    -8.436    -0.082     (0)  
H(0)          3.200e-38
   H2              1.600e-38   1.617e-38   -37.796   -37.791     0.004     15.40
O(0)          2.902e-15
   O2              1.451e-15   1.466e-15   -14.838   -14.834     0.004     30.84
S(-2)         0.000e+00
   HS-             0.000e+00   0.000e+00  -114.875  -114.961    -0.086     21.01
   H2S             0.000e+00   0.000e+00  -115.084  -115.080     0.004     37.64
   S-2             0.000e+00   0.000e+00  -120.400  -120.718    -0.318     (0)  
   (H2S)2          0.000e+00   0.000e+00  -231.379  -231.375     0.004     29.82
S(6)          1.514e-02
   SO4-2           1.065e-02   5.105e-03    -1.973    -2.292    -0.319     15.61
   CaSO4           4.495e-03   4.515e-03    -2.347    -2.345     0.002      7.80
   HSO4-           7.065e-08   5.855e-08    -7.151    -7.232    -0.082     40.80
   CaHSO4+         4.424e-09   3.667e-09    -8.354    -8.436    -0.082     (0)  

------------------------------Saturation indices-------------------------------

  Phase               SI** log IAP   log K(304 K,   1 atm)

  Anhydrite        -0.16     -4.58   -4.41  CaSO4
  Gypsum            0.00     -4.58   -4.58  CaSO4:2H2O
  H2(g)           -34.68    -37.79   -3.11  H2
  H2O(g)           -1.35     -0.00    1.35  H2O
  H2S(g)         -114.02   -121.95   -7.93  H2S
  O2(g)           -11.90    -14.83   -2.93  O2
  Sulfur          -85.21    -80.46    4.74  S

**For a gas, SI = log10(fugacity). Fugacity = pressure * phi / 1 atm.
  For ideal gases, phi = 1.

Reaction step 8.

Using solution 1.	Pure water
Using pure phase assemblage 1.	
Using temperature 1.	

-------------------------------Phase assemblage--------------------------------

                                                      Moles in assemblage
Phase               SI  log IAP  log K(T, P)   Initial       Final       Delta

Anhydrite        -0.15    -4.58     -4.43    1.000e+00           0  -1.000e+00
Gypsum            0.00    -4.58     -4.58    1.000e+00   1.985e+00   9.854e-01

-----------------------------Solution composition------------------------------

	Elements           Molality       Moles

	Ca                1.517e-02   1.463e-02
	S                 1.517e-02   1.463e-02

----------------------------Description of solution----------------------------

                                       pH  =   6.973      Charge balance
                                       pe  =  10.253      Adjusted to redox equilibrium
      Specific Conductance (µS/cm,  32°C)  = 2825
                          Density (g/cm³)  =   0.99706
                               Volume (L)  =   0.96934
                        Viscosity (mPa s)  =   0.77222
                        Activity of water  =   1.000
                 Ionic strength (mol/kgw)  =   4.232e-02
                       Mass of water (kg)  =   9.645e-01
                 Total alkalinity (eq/kg)  =   1.261e-09
                         Temperature (°C)  =  32.00
                  Electrical balance (eq)  =  -1.211e-09
 Percent error, 100*(Cat-|An|)/(Cat+|An|)  =  -0.00
                               Iterations  =  16
                                  Total H  = 1.070710e+02
                                  Total O  = 5.359400e+01

----------------------------Distribution of species----------------------------

                                               Log       Log       Log    mole V
   Species          Molality    Activity  Molality  Activity     Gamma   cm³/mol

   OH-             1.941e-07   1.592e-07    -6.712    -6.798    -0.086     -3.68
   H+              1.238e-07   1.064e-07    -6.907    -6.973    -0.066      0.00
   H2O             5.551e+01   9.996e-01     1.744    -0.000     0.000     18.11
Ca            1.517e-02
   Ca+2            1.058e-02   5.178e-03    -1.976    -2.286    -0.310    -17.59
   CaSO4           4.589e-03   4.609e-03    -2.338    -2.336     0.002      7.88
   CaOH+           9.742e-09   8.075e-09    -8.011    -8.093    -0.082     (0)  
   CaHSO4+         4.613e-09   3.823e-09    -8.336    -8.418    -0.082     (0)  
H(0)          4.628e-38
   H2              2.314e-38   2.338e-38   -37.636   -37.631     0.004     15.46
O(0)          2.873e-15
   O2              1.437e-15   1.451e-15   -14.843   -14.838     0.004     30.91
S(-2)         0.000e+00
   HS-             0.000e+00   0.000e+00  -114.349  -114.434    -0.086     21.04
   H2S             0.000e+00   0.000e+00  -114.555  -114.551     0.004     37.85
   S-2             0.000e+00   0.000e+00  -119.859  -120.176    -0.317     (0)  
   (H2S)2          0.000e+00   0.000e+00  -230.313  -230.308     0.004     29.78
S(6)          1.517e-02
   SO4-2           1.058e-02   5.076e-03    -1.976    -2.295    -0.319     15.70
   CaSO4           4.589e-03   4.609e-03    -2.338    -2.336     0.002      7.88
   HSO4-           7.410e-08   6.141e-08    -7.130    -7.212    -0.082     40.85
   CaHSO4+         4.613e-09   3.823e-09    -8.336    -8.418    -0.082     (0)  

------------------------------Saturation indices-------------------------------

  Phase               SI** log IAP   log K(305 K,   1 atm)

  Anhydrite        -0.15     -4.58   -4.43  CaSO4
  Gypsum            0.00     -4.58   -4.58  CaSO4:2H2O
  H2(g)           -34.52    -37.63   -3.11  H2
  H2O(g)           -1.33     -0.00    1.33  H2O
  H2S(g)         -113.48   -121.41   -7.92  H2S
  O2(g)           -11.90    -14.84   -2.94  O2
  Sulfur          -84.82    -80.10    4.72  S

**For a gas, SI = log10(fugacity). Fugacity = pressure * phi / 1 atm.
  For ideal gases, phi = 1.

Reaction step 9.

Using solution 1.	Pure water
Using pure phase assemblage 1.	
Using temperature 1.	

-------------------------------Phase assemblage--------------------------------

                                                      Moles in assemblage
Phase               SI  log IAP  log K(T, P)   Initial       Final       Delta

Anhydrite        -0.14    -4.59     -4.44    1.000e+00           0  -1.000e+00
Gypsum            0.00    -4.59     -4.59    1.000e+00   1.985e+00   9.853e-01

-----------------------------Solution composition------------------------------

	Elements           Molality       Moles

	Ca                1.519e-02   1.465e-02
	S                 1.519e-02   1.465e-02

----------------------------Description of solution----------------------------

                                       pH  =   6.960      Charge balance
                                       pe  =  10.185      Adjusted to redox equilibrium
      Specific Conductance (µS/cm,  33°C)  = 2865
                          Density (g/cm³)  =   0.99674
                               Volume (L)  =   0.96965
                        Viscosity (mPa s)  =   0.75644
                        Activity of water  =   1.000
                 Ionic strength (mol/kgw)  =   4.204e-02
                       Mass of water (kg)  =   9.645e-01
                 Total alkalinity (eq/kg)  =   1.261e-09
                         Temperature (°C)  =  33.00
                  Electrical balance (eq)  =  -1.212e-09
 Percent error, 100*(Cat-|An|)/(Cat+|An|)  =  -0.00
                               Iterations  =  16
                                  Total H  = 1.070710e+02
                                  Total O  = 5.359414e+01

----------------------------Distribution of species----------------------------

                                               Log       Log       Log    mole V
   Species          Molality    Activity  Molality  Activity     Gamma   cm³/mol

   OH-             2.020e-07   1.658e-07    -6.695    -6.780    -0.086     -3.66
   H+              1.276e-07   1.097e-07    -6.894    -6.960    -0.066      0.00
   H2O             5.551e+01   9.996e-01     1.744    -0.000     0.000     18.11
Ca            1.519e-02
   Ca+2            1.051e-02   5.146e-03    -1.978    -2.289    -0.310    -17.58
   CaSO4           4.683e-03   4.703e-03    -2.330    -2.328     0.002      7.97
   CaOH+           9.392e-09   7.785e-09    -8.027    -8.109    -0.081     (0)  
   CaHSO4+         4.807e-09   3.984e-09    -8.318    -8.400    -0.081     (0)  
H(0)          6.640e-38
   H2              3.320e-38   3.354e-38   -37.479   -37.474     0.004     15.53
O(0)          2.875e-15
   O2              1.437e-15   1.451e-15   -14.842   -14.838     0.004     30.97
S(-2)         0.000e+00
   HS-             0.000e+00   0.000e+00  -113.836  -113.921    -0.086     21.07
   H2S             0.000e+00   0.000e+00  -114.040  -114.036     0.004     38.05
   S-2             0.000e+00   0.000e+00  -119.331  -119.648    -0.317     (0)  
   (H2S)2          0.000e+00   0.000e+00  -229.272  -229.268     0.004     29.73
S(6)          1.519e-02
   SO4-2           1.051e-02   5.045e-03    -1.978    -2.297    -0.319     15.79
   CaSO4           4.683e-03   4.703e-03    -2.330    -2.328     0.002      7.97
   HSO4-           7.769e-08   6.440e-08    -7.110    -7.191    -0.081     40.90
   CaHSO4+         4.807e-09   3.984e-09    -8.318    -8.400    -0.081     (0)  

------------------------------Saturation indices-------------------------------

  Phase               SI** log IAP   log K(306 K,   1 atm)

  Anhydrite        -0.14     -4.59   -4.44  CaSO4
  Gypsum            0.00     -4.59   -4.59  CaSO4:2H2O
  H2(g)           -34.36    -37.47   -3.11  H2
  H2O(g)           -1.30     -0.00    1.30  H2O
  H2S(g)         -112.96   -120.88   -7.92  H2S
  O2(g)           -11.89    -14.84   -2.95  O2
  Sulfur          -84.45    -79.75    4.70  S

**For a gas, SI = log10(fugacity). Fugacity = pressure * phi / 1 atm.
  For ideal gases, phi = 1.

Reaction step 10.

Using solution 1.	Pure water
Using pure phase assemblage 1.	
Using temperature 1.	

-------------------------------Phase assemblage--------------------------------

                                                      Moles in assemblage
Phase               SI  log IAP  log K(T, P)   Initial       Final       Delta

Anhydrite        -0.13    -4.59     -4.46    1.000e+00           0  -1.000e+00
Gypsum            0.00    -4.59     -4.59    1.000e+00   1.985e+00   9.853e-01

-----------------------------Solution composition------------------------------

	Elements           Molality       Moles

	Ca                1.521e-02   1.467e-02
	S                 1.521e-02   1.467e-02

----------------------------Description of solution----------------------------

                                       pH  =   6.947      Charge balance
                                       pe  =  10.119      Adjusted to redox equilibrium
      Specific Conductance (µS/cm,  34°C)  = 2903
                          Density (g/cm³)  =   0.99641
                               Volume (L)  =   0.96998
                        Viscosity (mPa s)  =   0.74118
                        Activity of water  =   1.000
                 Ionic strength (mol/kgw)  =   4.175e-02
                       Mass of water (kg)  =   9.645e-01
                 Total alkalinity (eq/kg)  =   1.261e-09
                         Temperature (°C)  =  34.00
                  Electrical balance (eq)  =  -1.215e-09
 Percent error, 100*(Cat-|An|)/(Cat+|An|)  =  -0.00
                               Iterations  =  19
                                  Total H  = 1.070711e+02
                                  Total O  = 5.359426e+01

----------------------------Distribution of species----------------------------

                                               Log       Log       Log    mole V
   Species          Molality    Activity  Molality  Activity     Gamma   cm³/mol

   OH-             2.102e-07   1.726e-07    -6.677    -6.763    -0.086     -3.64
   H+              1.315e-07   1.130e-07    -6.881    -6.947    -0.066      0.00
   H2O             5.551e+01   9.996e-01     1.744    -0.000     0.000     18.12
Ca            1.521e-02
   Ca+2            1.044e-02   5.114e-03    -1.981    -2.291    -0.310    -17.58
   CaSO4           4.776e-03   4.796e-03    -2.321    -2.319     0.002      8.05
   CaOH+           9.054e-09   7.506e-09    -8.043    -8.125    -0.081     (0)  
   CaHSO4+         5.006e-09   4.150e-09    -8.300    -8.382    -0.081     (0)  
H(0)          9.477e-38
   H2              4.738e-38   4.786e-38   -37.324   -37.320     0.004     15.59
O(0)          2.891e-15
   O2              1.446e-15   1.459e-15   -14.840   -14.836     0.004     31.04
S(-2)         0.000e+00
   HS-             0.000e+00   0.000e+00  -113.331  -113.416    -0.086     21.10
   H2S             0.000e+00   0.000e+00  -113.533  -113.529     0.004     38.25
   S-2             0.000e+00   0.000e+00  -118.811  -119.128    -0.317     (0)  
   (H2S)2          0.000e+00   0.000e+00  -228.249  -228.245     0.004     29.68
S(6)          1.521e-02
   SO4-2           1.044e-02   5.014e-03    -1.981    -2.300    -0.318     15.88
   CaSO4           4.776e-03   4.796e-03    -2.321    -2.319     0.002      8.05
   HSO4-           8.143e-08   6.751e-08    -7.089    -7.171    -0.081     40.95
   CaHSO4+         5.006e-09   4.150e-09    -8.300    -8.382    -0.081     (0)  

------------------------------Saturation indices-------------------------------

  Phase               SI** log IAP   log K(307 K,   1 atm)

  Anhydrite        -0.13     -4.59   -4.46  CaSO4
  Gypsum            0.00     -4.59   -4.59  CaSO4:2H2O
  H2(g)           -34.21    -37.32   -3.11  H2
  H2O(g)           -1.28     -0.00    1.28  H2O
  H2S(g)         -112.44   -120.36   -7.92  H2S
  O2(g)           -11.88    -14.84   -2.95  O2
  Sulfur          -84.07    -79.40    4.68  S

**For a gas, SI = log10(fugacity). Fugacity = pressure * phi / 1 atm.
  For ideal gases, phi = 1.

Reaction step 11.

Using solution 1.	Pure water
Using pure phase assemblage 1.	
Using temperature 1.	

-------------------------------Phase assemblage--------------------------------

                                                      Moles in assemblage
Phase               SI  log IAP  log K(T, P)   Initial       Final       Delta

Anhydrite        -0.12    -4.60     -4.48    1.000e+00           0  -1.000e+00
Gypsum            0.00    -4.60     -4.60    1.000e+00   1.985e+00   9.853e-01

-----------------------------Solution composition------------------------------

	Elements           Molality       Moles

	Ca                1.523e-02   1.469e-02
	S                 1.523e-02   1.469e-02

----------------------------Description of solution----------------------------

                                       pH  =   6.934      Charge balance
                                       pe  =  10.053      Adjusted to redox equilibrium
      Specific Conductance (µS/cm,  35°C)  = 2940
                          Density (g/cm³)  =   0.99607
                               Volume (L)  =   0.97031
                        Viscosity (mPa s)  =   0.72641
                        Activity of water  =   1.000
                 Ionic strength (mol/kgw)  =   4.146e-02
                       Mass of water (kg)  =   9.645e-01
                 Total alkalinity (eq/kg)  =   1.261e-09
                         Temperature (°C)  =  35.00
                  Electrical balance (eq)  =  -1.215e-09
 Percent error, 100*(Cat-|An|)/(Cat+|An|)  =  -0.00
                               Iterations  =  20
                                  Total H  = 1.070712e+02
                                  Total O  = 5.359437e+01

----------------------------Distribution of species----------------------------

                                               Log       Log       Log    mole V
   Species          Molality    Activity  Molality  Activity     Gamma   cm³/mol

   OH-             2.186e-07   1.795e-07    -6.660    -6.746    -0.086     -3.62
   H+              1.355e-07   1.164e-07    -6.868    -6.934    -0.066      0.00
   H2O             5.551e+01   9.996e-01     1.744    -0.000     0.000     18.12
Ca            1.523e-02
   Ca+2            1.036e-02   5.080e-03    -1.984    -2.294    -0.310    -17.58
   CaSO4           4.869e-03   4.890e-03    -2.313    -2.311     0.002      8.13
   CaOH+           8.728e-09   7.237e-09    -8.059    -8.140    -0.081     (0)  
   CaHSO4+         5.212e-09   4.321e-09    -8.283    -8.364    -0.081     (0)  
H(0)          1.351e-37
   H2              6.755e-38   6.823e-38   -37.170   -37.166     0.004     15.65
O(0)          2.899e-15
   O2              1.449e-15   1.463e-15   -14.839   -14.835     0.004     31.10
S(-2)         0.000e+00
   HS-             0.000e+00   0.000e+00  -112.827  -112.913    -0.086     21.12
   H2S             0.000e+00   0.000e+00  -113.028  -113.024     0.004     38.44
   S-2             0.000e+00   0.000e+00  -118.293  -118.609    -0.316     (0)  
   (H2S)2          0.000e+00   0.000e+00  -227.228  -227.224     0.004     29.63
S(6)          1.523e-02
   SO4-2           1.036e-02   4.982e-03    -1.984    -2.303    -0.318     15.95
   CaSO4           4.869e-03   4.890e-03    -2.313    -2.311     0.002      8.13
   HSO4-           8.533e-08   7.075e-08    -7.069    -7.150    -0.081     40.99
   CaHSO4+         5.212e-09   4.321e-09    -8.283    -8.364    -0.081     (0)  

------------------------------Saturation indices-------------------------------

  Phase               SI** log IAP   log K(308 K,   1 atm)

  Anhydrite        -0.12     -4.60   -4.48  CaSO4
  Gypsum            0.00     -4.60   -4.60  CaSO4:2H2O
  H2(g)           -34.05    -37.17   -3.12  H2
  H2O(g)           -1.26     -0.00    1.26  H2O
  H2S(g)         -111.93   -119.85   -7.92  H2S
  O2(g)           -11.88    -14.83   -2.96  O2
  Sulfur          -83.71    -79.05    4.66  S

**For a gas, SI = log10(fugacity). Fugacity = pressure * phi / 1 atm.
  For ideal gases, phi = 1.

Reaction step 12.

Using solution 1.	Pure water
Using pure phase assemblage 1.	
Using temperature 1.	

-------------------------------Phase assemblage--------------------------------

                                                      Moles in assemblage
Phase               SI  log IAP  log K(T, P)   Initial       Final       Delta

Anhydrite        -0.11    -4.60     -4.49    1.000e+00           0  -1.000e+00
Gypsum            0.00    -4.60     -4.60    1.000e+00   1.985e+00   9.853e-01

-----------------------------Solution composition------------------------------

	Elements           Molality       Moles

	Ca                1.525e-02   1.471e-02
	S                 1.525e-02   1.471e-02

----------------------------Description of solution----------------------------

                                       pH  =   6.921      Charge balance
                                       pe  =   9.987      Adjusted to redox equilibrium
      Specific Conductance (µS/cm,  36°C)  = 2977
                          Density (g/cm³)  =   0.99572
                               Volume (L)  =   0.97066
                        Viscosity (mPa s)  =   0.71211
                        Activity of water  =   1.000
                 Ionic strength (mol/kgw)  =   4.115e-02
                       Mass of water (kg)  =   9.645e-01
                 Total alkalinity (eq/kg)  =   1.261e-09
                         Temperature (°C)  =  36.00
                  Electrical balance (eq)  =  -1.216e-09
 Percent error, 100*(Cat-|An|)/(Cat+|An|)  =  -0.00
                               Iterations  =  17
                                  Total H  = 1.070713e+02
                                  Total O  = 5.359446e+01

----------------------------Distribution of species----------------------------

                                               Log       Log       Log    mole V
   Species          Molality    Activity  Molality  Activity     Gamma   cm³/mol

   OH-             2.272e-07   1.866e-07    -6.644    -6.729    -0.085     -3.61
   H+              1.396e-07   1.200e-07    -6.855    -6.921    -0.066      0.00
   H2O             5.551e+01   9.996e-01     1.744    -0.000     0.000     18.13
Ca            1.525e-02
   Ca+2            1.029e-02   5.046e-03    -1.988    -2.297    -0.309    -17.58
   CaSO4           4.961e-03   4.982e-03    -2.304    -2.303     0.002      8.21
   CaOH+           8.415e-09   6.978e-09    -8.075    -8.156    -0.081     (0)  
   CaHSO4+         5.423e-09   4.497e-09    -8.266    -8.347    -0.081     (0)  
H(0)          1.926e-37
   H2              9.631e-38   9.727e-38   -37.016   -37.012     0.004     15.70
O(0)          2.890e-15
   O2              1.445e-15   1.459e-15   -14.840   -14.836     0.004     31.16
S(-2)         0.000e+00
   HS-             0.000e+00   0.000e+00  -112.323  -112.409    -0.085     21.15
   H2S             0.000e+00   0.000e+00  -112.521  -112.517     0.004     38.63
   S-2             0.000e+00   0.000e+00  -117.774  -118.090    -0.316     (0)  
   (H2S)2          0.000e+00   0.000e+00  -226.206  -226.202     0.004     29.58
S(6)          1.525e-02
   SO4-2           1.029e-02   4.949e-03    -1.988    -2.305    -0.318     16.03
   CaSO4           4.961e-03   4.982e-03    -2.304    -2.303     0.002      8.21
   HSO4-           8.938e-08   7.412e-08    -7.049    -7.130    -0.081     41.03
   CaHSO4+         5.423e-09   4.497e-09    -8.266    -8.347    -0.081     (0)  

------------------------------Saturation indices-------------------------------

  Phase               SI** log IAP   log K(309 K,   1 atm)

  Anhydrite        -0.11     -4.60   -4.49  CaSO4
  Gypsum            0.00     -4.60   -4.60  CaSO4:2H2O
  H2(g)           -33.90    -37.01   -3.12  H2
  H2O(g)           -1.23     -0.00    1.23  H2O
  H2S(g)         -111.41   -119.33   -7.92  H2S
  O2(g)           -11.87    -14.84   -2.96  O2
  Sulfur          -83.34    -78.70    4.63  S

**For a gas, SI = log10(fugacity). Fugacity = pressure * phi / 1 atm.
  For ideal gases, phi = 1.

Reaction step 13.

Using solution 1.	Pure water
Using pure phase assemblage 1.	
Using temperature 1.	

-------------------------------Phase assemblage--------------------------------

                                                      Moles in assemblage
Phase               SI  log IAP  log K(T, P)   Initial       Final       Delta

Anhydrite        -0.10    -4.61     -4.51    1.000e+00           0  -1.000e+00
Gypsum            0.00    -4.61     -4.61    1.000e+00   1.985e+00   9.853e-01

-----------------------------Solution composition------------------------------

	Elements           Molality       Moles

	Ca                1.526e-02   1.472e-02
	S                 1.526e-02   1.472e-02

----------------------------Description of solution----------------------------

                                       pH  =   6.908      Charge balance
                                       pe  =   9.978      Adjusted to redox equilibrium
      Specific Conductance (µS/cm,  37°C)  = 3012
                          Density (g/cm³)  =   0.99536
                               Volume (L)  =   0.97101
                        Viscosity (mPa s)  =   0.69826
                        Activity of water  =   1.000
                 Ionic strength (mol/kgw)  =   4.084e-02
                       Mass of water (kg)  =   9.645e-01
                 Total alkalinity (eq/kg)  =   1.261e-09
                         Temperature (°C)  =  37.00
                  Electrical balance (eq)  =  -1.217e-09
 Percent error, 100*(Cat-|An|)/(Cat+|An|)  =  -0.00
                               Iterations  =  19
                                  Total H  = 1.070713e+02
                                  Total O  = 5.359454e+01

----------------------------Distribution of species----------------------------

                                               Log       Log       Log    mole V
   Species          Molality    Activity  Molality  Activity     Gamma   cm³/mol

   OH-             2.361e-07   1.940e-07    -6.627    -6.712    -0.085     -3.59
   H+              1.437e-07   1.235e-07    -6.842    -6.908    -0.066      0.00
   H2O             5.551e+01   9.996e-01     1.744    -0.000     0.000     18.14
Ca            1.526e-02
   Ca+2            1.021e-02   5.011e-03    -1.991    -2.300    -0.309    -17.58
   CaSO4           5.053e-03   5.074e-03    -2.296    -2.295     0.002      8.29
   CaOH+           8.114e-09   6.730e-09    -8.091    -8.172    -0.081     (0)  
   CaHSO4+         5.639e-09   4.677e-09    -8.249    -8.330    -0.081     (0)  
H(0)          2.110e-37
   H2              1.055e-37   1.065e-37   -36.977   -36.973     0.004     15.76
O(0)          4.858e-15
   O2              2.429e-15   2.452e-15   -14.615   -14.611     0.004     31.22
S(-2)         0.000e+00
   HS-             0.000e+00   0.000e+00  -112.277  -112.362    -0.085     21.17
   H2S             0.000e+00   0.000e+00  -112.472  -112.468     0.004     38.82
   S-2             0.000e+00   0.000e+00  -117.713  -118.029    -0.316     (0)  
   (H2S)2          0.000e+00   0.000e+00  -226.098  -226.094     0.004     29.53
S(6)          1.526e-02
   SO4-2           1.021e-02   4.915e-03    -1.991    -2.308    -0.317     16.09
   CaSO4           5.053e-03   5.074e-03    -2.296    -2.295     0.002      8.29
   HSO4-           9.360e-08   7.764e-08    -7.029    -7.110    -0.081     41.07
   CaHSO4+         5.639e-09   4.677e-09    -8.249    -8.330    -0.081     (0)  

------------------------------Saturation indices-------------------------------

  Phase               SI** log IAP   log K(310 K,   1 atm)

  Anhydrite        -0.10     -4.61   -4.51  CaSO4
  Gypsum            0.00     -4.61   -4.61  CaSO4:2H2O
  H2(g)           -33.85    -36.97   -3.12  H2
  H2O(g)           -1.21     -0.00    1.21  H2O
  H2S(g)         -111.35   -119.27   -7.92  H2S
  O2(g)           -11.64    -14.61   -2.97  O2
  Sulfur          -83.31    -78.70    4.61  S

**For a gas, SI = log10(fugacity). Fugacity = pressure * phi / 1 atm.
  For ideal gases, phi = 1.

Reaction step 14.

Using solution 1.	Pure water
Using pure phase assemblage 1.	
Using temperature 1.	

-------------------------------Phase assemblage--------------------------------

                                                      Moles in assemblage
Phase               SI  log IAP  log K(T, P)   Initial       Final       Delta

Anhydrite        -0.09    -4.61     -4.53    1.000e+00           0  -1.000e+00
Gypsum            0.00    -4.61     -4.61    1.000e+00   1.985e+00   9.853e-01

-----------------------------Solution composition------------------------------

	Elements           Molality       Moles

	Ca                1.527e-02   1.473e-02
	S                 1.527e-02   1.473e-02

----------------------------Description of solution----------------------------

                                       pH  =   6.896      Charge balance
                                       pe  =   9.855      Adjusted to redox equilibrium
      Specific Conductance (µS/cm,  38°C)  = 3046
                          Density (g/cm³)  =   0.99500
                               Volume (L)  =   0.97136
                        Viscosity (mPa s)  =   0.68484
                        Activity of water  =   1.000
                 Ionic strength (mol/kgw)  =   4.052e-02
                       Mass of water (kg)  =   9.645e-01
                 Total alkalinity (eq/kg)  =   1.261e-09
                         Temperature (°C)  =  38.00
                  Electrical balance (eq)  =  -1.217e-09
 Percent error, 100*(Cat-|An|)/(Cat+|An|)  =  -0.00
                               Iterations  =  19
                                  Total H  = 1.070714e+02
                                  Total O  = 5.359461e+01

----------------------------Distribution of species----------------------------

                                               Log       Log       Log    mole V
   Species          Molality    Activity  Molality  Activity     Gamma   cm³/mol

   OH-             2.452e-07   2.015e-07    -6.610    -6.696    -0.085     -3.58
   H+              1.480e-07   1.272e-07    -6.830    -6.896    -0.066      0.00
   H2O             5.551e+01   9.996e-01     1.744    -0.000     0.000     18.14
Ca            1.527e-02
   Ca+2            1.013e-02   4.976e-03    -1.994    -2.303    -0.309    -17.58
   CaSO4           5.144e-03   5.165e-03    -2.289    -2.287     0.002      8.36
   CaOH+           7.823e-09   6.490e-09    -8.107    -8.188    -0.081     (0)  
   CaHSO4+         5.862e-09   4.863e-09    -8.232    -8.313    -0.081     (0)  
H(0)          3.906e-37
   H2              1.953e-37   1.972e-37   -36.709   -36.705     0.004     15.82
O(0)          2.843e-15
   O2              1.421e-15   1.435e-15   -14.847   -14.843     0.004     31.28
S(-2)         0.000e+00
   HS-             0.000e+00   0.000e+00  -111.318  -111.403    -0.085     21.19
   H2S             0.000e+00   0.000e+00  -111.510  -111.506     0.004     39.00
   S-2             0.000e+00   0.000e+00  -116.739  -117.055    -0.315     (0)  
   (H2S)2          0.000e+00   0.000e+00  -224.166  -224.162     0.004     29.47
S(6)          1.527e-02
   SO4-2           1.013e-02   4.881e-03    -1.994    -2.311    -0.317     16.16
   CaSO4           5.144e-03   5.165e-03    -2.289    -2.287     0.002      8.36
   HSO4-           9.799e-08   8.129e-08    -7.009    -7.090    -0.081     41.11
   CaHSO4+         5.862e-09   4.863e-09    -8.232    -8.313    -0.081     (0)  

------------------------------Saturation indices-------------------------------

  Phase               SI** log IAP   log K(311 K,   1 atm)

  Anhydrite        -0.09     -4.61   -4.53  CaSO4
  Gypsum            0.00     -4.61   -4.61  CaSO4:2H2O
  H2(g)           -33.59    -36.71   -3.12  H2
  H2O(g)           -1.18     -0.00    1.18  H2O
  H2S(g)         -110.38   -118.30   -7.92  H2S
  O2(g)           -11.87    -14.84   -2.97  O2
  Sulfur          -82.60    -78.00    4.59  S

**For a gas, SI = log10(fugacity). Fugacity = pressure * phi / 1 atm.
  For ideal gases, phi = 1.

Reaction step 15.

Using solution 1.	Pure water
Using pure phase assemblage 1.	
Using temperature 1.	

-------------------------------Phase assemblage--------------------------------

                                                      Moles in assemblage
Phase               SI  log IAP  log K(T, P)   Initial       Final       Delta

Anhydrite        -0.08    -4.62     -4.54    1.000e+00           0  -1.000e+00
Gypsum            0.00    -4.62     -4.62    1.000e+00   1.985e+00   9.853e-01

-----------------------------Solution composition------------------------------

	Elements           Molality       Moles

	Ca                1.528e-02   1.474e-02
	S                 1.528e-02   1.474e-02

----------------------------Description of solution----------------------------

                                       pH  =   6.883      Charge balance
                                       pe  =   9.791      Adjusted to redox equilibrium
      Specific Conductance (µS/cm,  39°C)  = 3079
                          Density (g/cm³)  =   0.99462
                               Volume (L)  =   0.97173
                        Viscosity (mPa s)  =   0.67183
                        Activity of water  =   1.000
                 Ionic strength (mol/kgw)  =   4.019e-02
                       Mass of water (kg)  =   9.645e-01
                 Total alkalinity (eq/kg)  =   1.261e-09
                         Temperature (°C)  =  39.00
                  Electrical balance (eq)  =  -1.216e-09
 Percent error, 100*(Cat-|An|)/(Cat+|An|)  =  -0.00
                               Iterations  =  18
                                  Total H  = 1.070714e+02
                                  Total O  = 5.359465e+01

----------------------------Distribution of species----------------------------

                                               Log       Log       Log    mole V
   Species          Molality    Activity  Molality  Activity     Gamma   cm³/mol

   OH-             2.546e-07   2.093e-07    -6.594    -6.679    -0.085     -3.57
   H+              1.523e-07   1.309e-07    -6.817    -6.883    -0.066      0.00
   H2O             5.551e+01   9.996e-01     1.744    -0.000     0.000     18.15
Ca            1.528e-02
   Ca+2            1.005e-02   4.939e-03    -1.998    -2.306    -0.308    -17.58
   CaSO4           5.234e-03   5.256e-03    -2.281    -2.279     0.002      8.44
   CaOH+           7.544e-09   6.260e-09    -8.122    -8.203    -0.081     (0)  
   CaHSO4+         6.090e-09   5.053e-09    -8.215    -8.296    -0.081     (0)  
H(0)          5.514e-37
   H2              2.757e-37   2.784e-37   -36.560   -36.555     0.004     15.87
O(0)          2.846e-15
   O2              1.423e-15   1.436e-15   -14.847   -14.843     0.004     31.34
S(-2)         0.000e+00
   HS-             0.000e+00   0.000e+00  -110.829  -110.914    -0.085     21.21
   H2S             0.000e+00   0.000e+00  -111.019  -111.015     0.004     39.18
   S-2             0.000e+00   0.000e+00  -116.236  -116.551    -0.315     (0)  
   (H2S)2          0.000e+00   0.000e+00  -223.174  -223.170     0.004     29.42
S(6)          1.528e-02
   SO4-2           1.005e-02   4.846e-03    -1.998    -2.315    -0.317     16.22
   CaSO4           5.234e-03   5.256e-03    -2.281    -2.279     0.002      8.44
   HSO4-           1.025e-07   8.509e-08    -6.989    -7.070    -0.081     41.15
   CaHSO4+         6.090e-09   5.053e-09    -8.215    -8.296    -0.081     (0)  

------------------------------Saturation indices-------------------------------

  Phase               SI** log IAP   log K(312 K,   1 atm)

  Anhydrite        -0.08     -4.62   -4.54  CaSO4
  Gypsum            0.00     -4.62   -4.62  CaSO4:2H2O
  H2(g)           -33.44    -36.56   -3.12  H2
  H2O(g)           -1.16     -0.00    1.16  H2O
  H2S(g)         -109.88   -117.80   -7.92  H2S
  O2(g)           -11.86    -14.84   -2.98  O2
  Sulfur          -82.24    -77.67    4.57  S

**For a gas, SI = log10(fugacity). Fugacity = pressure * phi / 1 atm.
  For ideal gases, phi = 1.

Reaction step 16.

Using solution 1.	Pure water
Using pure phase assemblage 1.	
Using temperature 1.	

-------------------------------Phase assemblage--------------------------------

                                                      Moles in assemblage
Phase               SI  log IAP  log K(T, P)   Initial       Final       Delta

Anhydrite        -0.07    -4.63     -4.56    1.000e+00           0  -1.000e+00
Gypsum            0.00    -4.63     -4.63    1.000e+00   1.985e+00   9.853e-01

-----------------------------Solution composition------------------------------

	Elements           Molality       Moles

	Ca                1.529e-02   1.475e-02
	S                 1.529e-02   1.475e-02

----------------------------Description of solution----------------------------

                                       pH  =   6.871      Charge balance
                                       pe  =   9.727      Adjusted to redox equilibrium
      Specific Conductance (µS/cm,  40°C)  = 3111
                          Density (g/cm³)  =   0.99424
                               Volume (L)  =   0.97210
                        Viscosity (mPa s)  =   0.65921
                        Activity of water  =   1.000
                 Ionic strength (mol/kgw)  =   3.986e-02
                       Mass of water (kg)  =   9.645e-01
                 Total alkalinity (eq/kg)  =   1.261e-09
                         Temperature (°C)  =  40.00
                  Electrical balance (eq)  =  -1.217e-09
 Percent error, 100*(Cat-|An|)/(Cat+|An|)  =  -0.00
                               Iterations  =  18
                                  Total H  = 1.070714e+02
                                  Total O  = 5.359469e+01

----------------------------Distribution of species----------------------------

                                               Log       Log       Log    mole V
   Species          Molality    Activity  Molality  Activity     Gamma   cm³/mol

   OH-             2.643e-07   2.173e-07    -6.578    -6.663    -0.085     -3.56
   H+              1.567e-07   1.347e-07    -6.805    -6.871    -0.066      0.00
   H2O             5.551e+01   9.996e-01     1.744    -0.000     0.000     18.16
Ca            1.529e-02
   Ca+2            9.964e-03   4.902e-03    -2.002    -2.310    -0.308    -17.58
   CaSO4           5.324e-03   5.346e-03    -2.274    -2.272     0.002      8.51
   CaOH+           7.275e-09   6.038e-09    -8.138    -8.219    -0.081     (0)  
   CaHSO4+         6.323e-09   5.248e-09    -8.199    -8.280    -0.081     (0)  
H(0)          7.766e-37
   H2              3.883e-37   3.921e-37   -36.411   -36.407     0.004     15.93
O(0)          2.848e-15
   O2              1.424e-15   1.437e-15   -14.846   -14.842     0.004     31.40
S(-2)         0.000e+00
   HS-             0.000e+00   0.000e+00  -110.344  -110.429    -0.085     21.23
   H2S             0.000e+00   0.000e+00  -110.531  -110.527     0.004     39.35
   S-2             0.000e+00   0.000e+00  -115.737  -116.051    -0.315     (0)  
   (H2S)2          0.000e+00   0.000e+00  -222.190  -222.186     0.004     29.37
S(6)          1.529e-02
   SO4-2           9.964e-03   4.811e-03    -2.002    -2.318    -0.316     16.27
   CaSO4           5.324e-03   5.346e-03    -2.274    -2.272     0.002      8.51
   HSO4-           1.073e-07   8.904e-08    -6.969    -7.050    -0.081     41.19
   CaHSO4+         6.323e-09   5.248e-09    -8.199    -8.280    -0.081     (0)  

------------------------------Saturation indices-------------------------------

  Phase               SI** log IAP   log K(313 K,   1 atm)

  Anhydrite        -0.07     -4.63   -4.56  CaSO4
  Gypsum            0.00     -4.63   -4.63  CaSO4:2H2O
  H2(g)           -33.29    -36.41   -3.12  H2
  H2O(g)           -1.14     -0.00    1.14  H2O
  H2S(g)         -109.38   -117.30   -7.92  H2S
  O2(g)           -11.86    -14.84   -2.98  O2
  Sulfur          -81.88    -77.33    4.55  S

**For a gas, SI = log10(fugacity). Fugacity = pressure * phi / 1 atm.
  For ideal gases, phi = 1.

Reaction step 17.

Using solution 1.	Pure water
Using pure phase assemblage 1.	
Using temperature 1.	

-------------------------------Phase assemblage--------------------------------

                                                      Moles in assemblage
Phase               SI  log IAP  log K(T, P)   Initial       Final       Delta

Anhydrite        -0.06    -4.63     -4.58    1.000e+00           0  -1.000e+00
Gypsum            0.00    -4.63     -4.63    1.000e+00   1.985e+00   9.853e-01

-----------------------------Solution composition------------------------------

	Elements           Molality       Moles

	Ca                1.529e-02   1.475e-02
	S                 1.529e-02   1.475e-02

----------------------------Description of solution----------------------------

                                       pH  =   6.858      Charge balance
                                       pe  =   9.664      Adjusted to redox equilibrium
      Specific Conductance (µS/cm,  41°C)  = 3142
                          Density (g/cm³)  =   0.99386
                               Volume (L)  =   0.97248
                        Viscosity (mPa s)  =   0.64698
                        Activity of water  =   1.000
                 Ionic strength (mol/kgw)  =   3.952e-02
                       Mass of water (kg)  =   9.645e-01
                 Total alkalinity (eq/kg)  =   1.261e-09
                         Temperature (°C)  =  41.00
                  Electrical balance (eq)  =  -1.216e-09
 Percent error, 100*(Cat-|An|)/(Cat+|An|)  =  -0.00
                               Iterations  =  22
                                  Total H  = 1.070714e+02
                                  Total O  = 5.359471e+01

----------------------------Distribution of species----------------------------

                                               Log       Log       Log    mole V
   Species          Molality    Activity  Molality  Activity     Gamma   cm³/mol

   OH-             2.741e-07   2.255e-07    -6.562    -6.647    -0.085     -3.56
   H+              1.611e-07   1.386e-07    -6.793    -6.858    -0.066      0.00
   H2O             5.551e+01   9.996e-01     1.744    -0.000     0.000     18.16
Ca            1.529e-02
   Ca+2            9.879e-03   4.865e-03    -2.005    -2.313    -0.308    -17.58
   CaSO4           5.412e-03   5.434e-03    -2.267    -2.265     0.002      8.58
   CaOH+           7.016e-09   5.824e-09    -8.154    -8.235    -0.081     (0)  
   CaHSO4+         6.563e-09   5.448e-09    -8.183    -8.264    -0.081     (0)  
H(0)          1.086e-36
   H2              5.432e-37   5.484e-37   -36.265   -36.261     0.004     15.98
O(0)          2.875e-15
   O2              1.437e-15   1.450e-15   -14.842   -14.838     0.004     31.46
S(-2)         0.000e+00
   HS-             0.000e+00   0.000e+00  -109.870  -109.955    -0.085     21.24
   H2S             0.000e+00   0.000e+00  -110.054  -110.050     0.004     39.52
   S-2             0.000e+00   0.000e+00  -115.248  -115.562    -0.314     (0)  
   (H2S)2          0.000e+00   0.000e+00  -221.227  -221.223     0.004     29.31
S(6)          1.529e-02
   SO4-2           9.879e-03   4.775e-03    -2.005    -2.321    -0.316     16.32
   CaSO4           5.412e-03   5.434e-03    -2.267    -2.265     0.002      8.58
   HSO4-           1.122e-07   9.314e-08    -6.950    -7.031    -0.081     41.22
   CaHSO4+         6.563e-09   5.448e-09    -8.183    -8.264    -0.081     (0)  

------------------------------Saturation indices-------------------------------

  Phase               SI** log IAP   log K(314 K,   1 atm)

  Anhydrite        -0.06     -4.63   -4.58  CaSO4
  Gypsum            0.00     -4.63   -4.63  CaSO4:2H2O
  H2(g)           -33.14    -36.26   -3.12  H2
  H2O(g)           -1.12     -0.00    1.12  H2O
  H2S(g)         -108.90   -116.81   -7.92  H2S
  O2(g)           -11.85    -14.84   -2.99  O2
  Sulfur          -81.53    -77.00    4.53  S

**For a gas, SI = log10(fugacity). Fugacity = pressure * phi / 1 atm.
  For ideal gases, phi = 1.

Reaction step 18.

Using solution 1.	Pure water
Using pure phase assemblage 1.	
Using temperature 1.	

-------------------------------Phase assemblage--------------------------------

                                                      Moles in assemblage
Phase               SI  log IAP  log K(T, P)   Initial       Final       Delta

Anhydrite        -0.05    -4.64     -4.59    1.000e+00           0  -1.000e+00
Gypsum            0.00    -4.64     -4.64    1.000e+00   1.985e+00   9.853e-01

-----------------------------Solution composition------------------------------

	Elements           Molality       Moles

	Ca                1.529e-02   1.475e-02
	S                 1.529e-02   1.475e-02

----------------------------Description of solution----------------------------

                                       pH  =   6.846      Charge balance
                                       pe  =  10.063      Adjusted to redox equilibrium
      Specific Conductance (µS/cm,  42°C)  = 3172
                          Density (g/cm³)  =   0.99346
                               Volume (L)  =   0.97287
                        Viscosity (mPa s)  =   0.63511
                        Activity of water  =   1.000
                 Ionic strength (mol/kgw)  =   3.917e-02
                       Mass of water (kg)  =   9.645e-01
                 Total alkalinity (eq/kg)  =   1.261e-09
                         Temperature (°C)  =  42.00
                  Electrical balance (eq)  =  -1.222e-09
 Percent error, 100*(Cat-|An|)/(Cat+|An|)  =  -0.00
                               Iterations  =  35
                                  Total H  = 1.070714e+02
                                  Total O  = 5.359471e+01

----------------------------Distribution of species----------------------------

                                               Log       Log       Log    mole V
   Species          Molality    Activity  Molality  Activity     Gamma   cm³/mol

   OH-             2.843e-07   2.339e-07    -6.546    -6.631    -0.085     -3.55
   H+              1.657e-07   1.425e-07    -6.781    -6.846    -0.065      0.00
   H2O             5.551e+01   9.996e-01     1.744    -0.000     0.000     18.17
Ca            1.529e-02
   Ca+2            9.792e-03   4.827e-03    -2.009    -2.316    -0.307    -17.59
   CaSO4           5.500e-03   5.522e-03    -2.260    -2.258     0.002      8.64
   CaHSO4+         6.807e-09   5.652e-09    -8.167    -8.248    -0.081     (0)  
   CaOH+           6.767e-09   5.619e-09    -8.170    -8.250    -0.081     (0)  
H(0)          1.818e-37
   H2              9.090e-38   9.176e-38   -37.041   -37.037     0.004     16.03
O(0)          2.018e-13
   O2              1.009e-13   1.018e-13   -12.996   -12.992     0.004     31.51
S(-2)         0.000e+00
   HS-             0.000e+00   0.000e+00  -113.084  -113.169    -0.085     21.26
   H2S             0.000e+00   0.000e+00  -113.265  -113.261     0.004     39.69
   S-2             0.000e+00   0.000e+00  -118.449  -118.762    -0.314     (0)  
   (H2S)2          0.000e+00   0.000e+00  -227.641  -227.638     0.004     29.26
S(6)          1.529e-02
   SO4-2           9.792e-03   4.738e-03    -2.009    -2.324    -0.315     16.36
   CaSO4           5.500e-03   5.522e-03    -2.260    -2.258     0.002      8.64
   HSO4-           1.173e-07   9.741e-08    -6.931    -7.011    -0.081     41.25
   CaHSO4+         6.807e-09   5.652e-09    -8.167    -8.248    -0.081     (0)  

------------------------------Saturation indices-------------------------------

  Phase               SI** log IAP   log K(315 K,   1 atm)

  Anhydrite        -0.05     -4.64   -4.59  CaSO4
  Gypsum            0.00     -4.64   -4.64  CaSO4:2H2O
  H2(g)           -33.91    -37.04   -3.12  H2
  H2O(g)           -1.09     -0.00    1.09  H2O
  H2S(g)         -112.10   -120.02   -7.92  H2S
  O2(g)           -10.00    -12.99   -2.99  O2
  Sulfur          -83.95    -79.44    4.51  S

**For a gas, SI = log10(fugacity). Fugacity = pressure * phi / 1 atm.
  For ideal gases, phi = 1.

Reaction step 19.

Using solution 1.	Pure water
Using pure phase assemblage 1.	
Using temperature 1.	

-------------------------------Phase assemblage--------------------------------

                                                      Moles in assemblage
Phase               SI  log IAP  log K(T, P)   Initial       Final       Delta

Anhydrite        -0.04    -4.65     -4.61    1.000e+00           0  -1.000e+00
Gypsum            0.00    -4.65     -4.65    1.000e+00   1.985e+00   9.853e-01

-----------------------------Solution composition------------------------------

	Elements           Molality       Moles

	Ca                1.529e-02   1.475e-02
	S                 1.529e-02   1.475e-02

----------------------------Description of solution----------------------------

                                       pH  =   6.834      Charge balance
                                       pe  =   9.537      Adjusted to redox equilibrium
      Specific Conductance (µS/cm,  43°C)  = 3201
                          Density (g/cm³)  =   0.99306
                               Volume (L)  =   0.97326
                        Viscosity (mPa s)  =   0.62359
                        Activity of water  =   1.000
                 Ionic strength (mol/kgw)  =   3.882e-02
                       Mass of water (kg)  =   9.645e-01
                 Total alkalinity (eq/kg)  =   1.261e-09
                         Temperature (°C)  =  43.00
                  Electrical balance (eq)  =  -1.216e-09
 Percent error, 100*(Cat-|An|)/(Cat+|An|)  =  -0.00
                               Iterations  =  18
                                  Total H  = 1.070714e+02
                                  Total O  = 5.359470e+01

----------------------------Distribution of species----------------------------

                                               Log       Log       Log    mole V
   Species          Molality    Activity  Molality  Activity     Gamma   cm³/mol

   OH-             2.947e-07   2.426e-07    -6.531    -6.615    -0.085     -3.55
   H+              1.703e-07   1.465e-07    -6.769    -6.834    -0.065      0.00
   H2O             5.551e+01   9.996e-01     1.744    -0.000     0.000     18.18
Ca            1.529e-02
   Ca+2            9.704e-03   4.788e-03    -2.013    -2.320    -0.307    -17.59
   CaSO4           5.587e-03   5.609e-03    -2.253    -2.251     0.002      8.71
   CaHSO4+         7.058e-09   5.862e-09    -8.151    -8.232    -0.081     (0)  
   CaOH+           6.528e-09   5.422e-09    -8.185    -8.266    -0.081     (0)  
H(0)          2.142e-36
   H2              1.071e-36   1.081e-36   -35.970   -35.966     0.004     16.08
O(0)          2.841e-15
   O2              1.421e-15   1.433e-15   -14.848   -14.844     0.004     31.57
S(-2)         0.000e+00
   HS-             0.000e+00   0.000e+00  -108.907  -108.992    -0.085     21.27
   H2S             0.000e+00   0.000e+00  -109.085  -109.081     0.004     39.86
   S-2             0.000e+00   0.000e+00  -114.257  -114.571    -0.313     (0)  
   (H2S)2          0.000e+00   0.000e+00  -219.273  -219.269     0.004     29.20
S(6)          1.529e-02
   SO4-2           9.704e-03   4.701e-03    -2.013    -2.328    -0.315     16.40
   CaSO4           5.587e-03   5.609e-03    -2.253    -2.251     0.002      8.71
[...]

-----------------------------Solution composition------------------------------

	Elements           Molality       Moles

	Ca                9.724e-03   1.007e-02
	S                 9.724e-03   1.007e-02

----------------------------Description of solution----------------------------

                                       pH  =   6.520      Charge balance
                                       pe  =   7.965      Adjusted to redox equilibrium
      Specific Conductance (µS/cm,  71°C)  = 2618
                          Density (g/cm³)  =   0.97844
                               Volume (L)  =   1.06026
                        Viscosity (mPa s)  =   0.40058
                        Activity of water  =   1.000
                 Ionic strength (mol/kgw)  =   2.034e-02
                       Mass of water (kg)  =   1.036e+00
                 Total alkalinity (eq/kg)  =   1.174e-09
                         Temperature (°C)  =  71.00
                  Electrical balance (eq)  =  -1.213e-09
 Percent error, 100*(Cat-|An|)/(Cat+|An|)  =  -0.00
                               Iterations  =  14
                                  Total H  = 1.150124e+02
                                  Total O  = 5.754652e+01

----------------------------Distribution of species----------------------------

                                               Log       Log       Log    mole V
   Species          Molality    Activity  Molality  Activity     Gamma   cm³/mol

   OH-             6.577e-07   5.620e-07    -6.182    -6.250    -0.068     -4.09
   H+              3.431e-07   3.018e-07    -6.465    -6.520    -0.056      0.00
   H2O             5.551e+01   9.997e-01     1.744    -0.000     0.000     18.44
Ca            9.724e-03
   Ca+2            5.084e-03   2.833e-03    -2.294    -2.548    -0.254    -18.14
   CaSO4           4.640e-03   4.650e-03    -2.333    -2.333     0.001     10.11
   CaHSO4+         1.038e-08   8.913e-09    -7.984    -8.050    -0.066     (0)  
   CaOH+           1.815e-09   1.558e-09    -8.741    -8.808    -0.066     (0)  
H(0)          1.013e-32
   H2              5.066e-33   5.091e-33   -32.295   -32.293     0.002     17.29
O(0)          2.678e-15
   O2              1.339e-15   1.345e-15   -14.873   -14.871     0.002     32.83
S(-2)         0.000e+00
   HS-             0.000e+00   0.000e+00   -97.129   -97.197    -0.068     21.08
   H2S             0.000e+00   0.000e+00   -97.151   -97.148     0.002     43.48
   S-2             0.000e+00   0.000e+00  -102.152  -102.410    -0.257     (0)  
   (H2S)2          0.000e+00   0.000e+00  -195.228  -195.226     0.002     27.24
S(6)          9.724e-03
   SO4-2           5.084e-03   2.806e-03    -2.294    -2.552    -0.258     15.91
   CaSO4           4.640e-03   4.650e-03    -2.333    -2.333     0.001     10.11
   HSO4-           3.049e-07   2.617e-07    -6.516    -6.582    -0.066     41.53
   CaHSO4+         1.038e-08   8.913e-09    -7.984    -8.050    -0.066     (0)  

------------------------------Saturation indices-------------------------------

  Phase               SI** log IAP   log K(344 K,   1 atm)

  Anhydrite         0.00     -5.10   -5.10  CaSO4
  Gypsum           -0.20     -5.10   -4.90  CaSO4:2H2O
  H2(g)           -29.17    -32.29   -3.12  H2
  H2O(g)           -0.50     -0.00    0.50  H2O
  H2S(g)          -95.79   -103.72   -7.93  H2S
  O2(g)           -11.78    -14.87   -3.09  O2
  Sulfur          -72.13    -68.18    3.95  S

**For a gas, SI = log10(fugacity). Fugacity = pressure * phi / 1 atm.
  For ideal gases, phi = 1.

Reaction step 48.

Using solution 1.	Pure water
Using pure phase assemblage 1.	
Using temperature 1.	

-------------------------------Phase assemblage--------------------------------

                                                      Moles in assemblage
Phase               SI  log IAP  log K(T, P)   Initial       Final       Delta

Anhydrite         0.00    -5.12     -5.12    1.000e+00   1.990e+00   9.901e-01
Gypsum           -0.21    -5.12     -4.91    1.000e+00           0  -1.000e+00

-----------------------------Solution composition------------------------------

	Elements           Molality       Moles

	Ca                9.540e-03   9.883e-03
	S                 9.540e-03   9.883e-03

----------------------------Description of solution----------------------------

                                       pH  =   6.511      Charge balance
                                       pe  =   7.915      Adjusted to redox equilibrium
      Specific Conductance (µS/cm,  72°C)  = 2587
                          Density (g/cm³)  =   0.97784
                               Volume (L)  =   1.06089
                        Viscosity (mPa s)  =   0.39517
                        Activity of water  =   1.000
                 Ionic strength (mol/kgw)  =   1.982e-02
                       Mass of water (kg)  =   1.036e+00
                 Total alkalinity (eq/kg)  =   1.174e-09
                         Temperature (°C)  =  72.00
                  Electrical balance (eq)  =  -1.213e-09
 Percent error, 100*(Cat-|An|)/(Cat+|An|)  =  -0.00
                               Iterations  =  14
                                  Total H  = 1.150124e+02
                                  Total O  = 5.754575e+01

----------------------------Distribution of species----------------------------

                                               Log       Log       Log    mole V
   Species          Molality    Activity  Molality  Activity     Gamma   cm³/mol

   OH-             6.741e-07   5.768e-07    -6.171    -6.239    -0.068     -4.13
   H+              3.505e-07   3.086e-07    -6.455    -6.511    -0.055      0.00
   H2O             5.551e+01   9.998e-01     1.744    -0.000     0.000     18.45
Ca            9.540e-03
   Ca+2            4.956e-03   2.774e-03    -2.305    -2.557    -0.252    -18.17
   CaSO4           4.584e-03   4.593e-03    -2.339    -2.338     0.001     10.15
   CaHSO4+         1.046e-08   8.989e-09    -7.980    -8.046    -0.066     (0)  
   CaOH+           1.736e-09   1.491e-09    -8.761    -8.826    -0.066     (0)  
H(0)          1.325e-32
   H2              6.625e-33   6.656e-33   -32.179   -32.177     0.002     17.32
O(0)          2.682e-15
   O2              1.341e-15   1.347e-15   -14.873   -14.871     0.002     32.87
S(-2)         0.000e+00
   HS-             0.000e+00   0.000e+00   -96.761   -96.829    -0.068     21.06
   H2S             0.000e+00   0.000e+00   -96.776   -96.774     0.002     43.59
   S-2             0.000e+00   0.000e+00  -101.773  -102.028    -0.255     (0)  
   (H2S)2          0.000e+00   0.000e+00  -194.473  -194.471     0.002     27.16
S(6)          9.540e-03
   SO4-2           4.955e-03   2.748e-03    -2.305    -2.561    -0.256     15.84
   CaSO4           4.584e-03   4.593e-03    -2.339    -2.338     0.001     10.15
   HSO4-           3.136e-07   2.695e-07    -6.504    -6.569    -0.066     41.52
   CaHSO4+         1.046e-08   8.989e-09    -7.980    -8.046    -0.066     (0)  

------------------------------Saturation indices-------------------------------

  Phase               SI** log IAP   log K(345 K,   1 atm)

  Anhydrite         0.00     -5.12   -5.12  CaSO4
  Gypsum           -0.21     -5.12   -4.91  CaSO4:2H2O
  H2(g)           -29.05    -32.18   -3.12  H2
  H2O(g)           -0.48     -0.00    0.48  H2O
  H2S(g)          -95.41   -103.34   -7.93  H2S
  O2(g)           -11.78    -14.87   -3.09  O2
  Sulfur          -71.86    -67.92    3.93  S

**For a gas, SI = log10(fugacity). Fugacity = pressure * phi / 1 atm.
  For ideal gases, phi = 1.

Reaction step 49.

Using solution 1.	Pure water
Using pure phase assemblage 1.	
Using temperature 1.	

-------------------------------Phase assemblage--------------------------------

                                                      Moles in assemblage
Phase               SI  log IAP  log K(T, P)   Initial       Final       Delta

Anhydrite         0.00    -5.14     -5.14    1.000e+00   1.990e+00   9.903e-01
Gypsum           -0.22    -5.14     -4.92    1.000e+00           0  -1.000e+00

-----------------------------Solution composition------------------------------

	Elements           Molality       Moles

	Ca                9.358e-03   9.695e-03
	S                 9.358e-03   9.695e-03

----------------------------Description of solution----------------------------

                                       pH  =   6.501      Charge balance
                                       pe  =   7.865      Adjusted to redox equilibrium
      Specific Conductance (µS/cm,  73°C)  = 2556
                          Density (g/cm³)  =   0.97723
                               Volume (L)  =   1.06152
                        Viscosity (mPa s)  =   0.38987
                        Activity of water  =   1.000
                 Ionic strength (mol/kgw)  =   1.932e-02
                       Mass of water (kg)  =   1.036e+00
                 Total alkalinity (eq/kg)  =   1.174e-09
                         Temperature (°C)  =  73.00
                  Electrical balance (eq)  =  -1.213e-09
 Percent error, 100*(Cat-|An|)/(Cat+|An|)  =  -0.00
                               Iterations  =  14
                                  Total H  = 1.150124e+02
                                  Total O  = 5.754500e+01

----------------------------Distribution of species----------------------------

                                               Log       Log       Log    mole V
   Species          Molality    Activity  Molality  Activity     Gamma   cm³/mol

   OH-             6.907e-07   5.918e-07    -6.161    -6.228    -0.067     -4.17
   H+              3.581e-07   3.155e-07    -6.446    -6.501    -0.055      0.00
   H2O             5.551e+01   9.998e-01     1.744    -0.000     0.000     18.46
Ca            9.358e-03
   Ca+2            4.830e-03   2.716e-03    -2.316    -2.566    -0.250    -18.20
   CaSO4           4.528e-03   4.537e-03    -2.344    -2.343     0.001     10.18
   CaHSO4+         1.053e-08   9.064e-09    -7.977    -8.043    -0.065     (0)  
   CaOH+           1.660e-09   1.428e-09    -8.780    -8.845    -0.065     (0)  
H(0)          1.729e-32
   H2              8.644e-33   8.685e-33   -32.063   -32.061     0.002     17.36
O(0)          2.686e-15
   O2              1.343e-15   1.349e-15   -14.872   -14.870     0.002     32.91
S(-2)         0.000e+00
   HS-             0.000e+00   0.000e+00   -96.396   -96.463    -0.067     21.03
   H2S             0.000e+00   0.000e+00   -96.404   -96.402     0.002     43.69
   S-2             0.000e+00   0.000e+00  -101.397  -101.650    -0.253     (0)  
   (H2S)2          0.000e+00   0.000e+00  -193.726  -193.724     0.002     27.07
S(6)          9.358e-03
   SO4-2           4.830e-03   2.692e-03    -2.316    -2.570    -0.254     15.78
   CaSO4           4.528e-03   4.537e-03    -2.344    -2.343     0.001     10.18
   HSO4-           3.226e-07   2.775e-07    -6.491    -6.557    -0.065     41.51
   CaHSO4+         1.053e-08   9.064e-09    -7.977    -8.043    -0.065     (0)  

------------------------------Saturation indices-------------------------------

  Phase               SI** log IAP   log K(346 K,   1 atm)

  Anhydrite         0.00     -5.14   -5.14  CaSO4
  Gypsum           -0.22     -5.14   -4.92  CaSO4:2H2O
  H2(g)           -28.94    -32.06   -3.12  H2
  H2O(g)           -0.46     -0.00    0.46  H2O
  H2S(g)          -95.03   -102.96   -7.94  H2S
  O2(g)           -11.78    -14.87   -3.09  O2
  Sulfur          -71.59    -67.67    3.92  S

**For a gas, SI = log10(fugacity). Fugacity = pressure * phi / 1 atm.
  For ideal gases, phi = 1.

Reaction step 50.

Using solution 1.	Pure water
Using pure phase assemblage 1.	
Using temperature 1.	

-------------------------------Phase assemblage--------------------------------

                                                      Moles in assemblage
Phase               SI  log IAP  log K(T, P)   Initial       Final       Delta

Anhydrite         0.00    -5.15     -5.15    1.000e+00   1.990e+00   9.905e-01
Gypsum           -0.22    -5.15     -4.93    1.000e+00           0  -1.000e+00

-----------------------------Solution composition------------------------------

	Elements           Molality       Moles

	Ca                9.180e-03   9.511e-03
	S                 9.180e-03   9.511e-03

----------------------------Description of solution----------------------------

                                       pH  =   6.491      Charge balance
                                       pe  =   7.816      Adjusted to redox equilibrium
      Specific Conductance (µS/cm,  74°C)  = 2524
                          Density (g/cm³)  =   0.97662
                               Volume (L)  =   1.06216
                        Viscosity (mPa s)  =   0.38470
                        Activity of water  =   1.000
                 Ionic strength (mol/kgw)  =   1.883e-02
                       Mass of water (kg)  =   1.036e+00
                 Total alkalinity (eq/kg)  =   1.174e-09
                         Temperature (°C)  =  74.00
                  Electrical balance (eq)  =  -1.213e-09
 Percent error, 100*(Cat-|An|)/(Cat+|An|)  =  -0.00
                               Iterations  =  14
                                  Total H  = 1.150124e+02
                                  Total O  = 5.754426e+01

----------------------------Distribution of species----------------------------

                                               Log       Log       Log    mole V
   Species          Molality    Activity  Molality  Activity     Gamma   cm³/mol

   OH-             7.076e-07   6.071e-07    -6.150    -6.217    -0.067     -4.21
   H+              3.657e-07   3.225e-07    -6.437    -6.491    -0.055      0.00
   H2O             5.551e+01   9.998e-01     1.744    -0.000     0.000     18.47
Ca            9.180e-03
   Ca+2            4.708e-03   2.660e-03    -2.327    -2.575    -0.248    -18.24
   CaSO4           4.472e-03   4.481e-03    -2.350    -2.349     0.001     10.22
   CaHSO4+         1.061e-08   9.137e-09    -7.974    -8.039    -0.065     (0)  
   CaOH+           1.588e-09   1.368e-09    -8.799    -8.864    -0.065     (0)  
H(0)          2.253e-32
   H2              1.126e-32   1.132e-32   -31.948   -31.946     0.002     17.40
O(0)          2.686e-15
   O2              1.343e-15   1.349e-15   -14.872   -14.870     0.002     32.95
S(-2)         0.000e+00
   HS-             0.000e+00   0.000e+00   -96.033   -96.100    -0.067     21.01
   H2S             0.000e+00   0.000e+00   -96.034   -96.033     0.002     43.79
   S-2             0.000e+00   0.000e+00  -101.023  -101.274    -0.251     (0)  
   (H2S)2          0.000e+00   0.000e+00  -192.982  -192.980     0.002     26.98
S(6)          9.180e-03
   SO4-2           4.708e-03   2.636e-03    -2.327    -2.579    -0.252     15.70
   CaSO4           4.472e-03   4.481e-03    -2.350    -2.349     0.001     10.22
   HSO4-           3.317e-07   2.857e-07    -6.479    -6.544    -0.065     41.50
   CaHSO4+         1.061e-08   9.137e-09    -7.974    -8.039    -0.065     (0)  

------------------------------Saturation indices-------------------------------

  Phase               SI** log IAP   log K(347 K,   1 atm)

  Anhydrite         0.00     -5.15   -5.15  CaSO4
  Gypsum           -0.22     -5.15   -4.93  CaSO4:2H2O
  H2(g)           -28.82    -31.95   -3.12  H2
  H2O(g)           -0.44     -0.00    0.44  H2O
  H2S(g)          -94.65   -102.59   -7.94  H2S
  O2(g)           -11.77    -14.87   -3.10  O2
  Sulfur          -71.32    -67.42    3.90  S

**For a gas, SI = log10(fugacity). Fugacity = pressure * phi / 1 atm.
  For ideal gases, phi = 1.

Reaction step 51.

Using solution 1.	Pure water
Using pure phase assemblage 1.	
Using temperature 1.	

-------------------------------Phase assemblage--------------------------------

                                                      Moles in assemblage
Phase               SI  log IAP  log K(T, P)   Initial       Final       Delta

Anhydrite         0.00    -5.17     -5.17    1.000e+00   1.991e+00   9.907e-01
Gypsum           -0.23    -5.17     -4.94    1.000e+00           0  -1.000e+00

-----------------------------Solution composition------------------------------

	Elements           Molality       Moles

	Ca                9.004e-03   9.329e-03
	S                 9.004e-03   9.329e-03

----------------------------Description of solution----------------------------

                                       pH  =   6.482      Charge balance
                                       pe  =   7.766      Adjusted to redox equilibrium
      Specific Conductance (µS/cm,  75°C)  = 2493
                          Density (g/cm³)  =   0.97600
                               Volume (L)  =   1.06281
                        Viscosity (mPa s)  =   0.37964
                        Activity of water  =   1.000
                 Ionic strength (mol/kgw)  =   1.835e-02
                       Mass of water (kg)  =   1.036e+00
                 Total alkalinity (eq/kg)  =   1.174e-09
                         Temperature (°C)  =  75.00
                  Electrical balance (eq)  =  -1.217e-09
 Percent error, 100*(Cat-|An|)/(Cat+|An|)  =  -0.00
                               Iterations  =  17
                                  Total H  = 1.150124e+02
                                  Total O  = 5.754353e+01

----------------------------Distribution of species----------------------------

                                               Log       Log       Log    mole V
   Species          Molality    Activity  Molality  Activity     Gamma   cm³/mol

   OH-             7.247e-07   6.226e-07    -6.140    -6.206    -0.066     -4.26
   H+              3.734e-07   3.296e-07    -6.428    -6.482    -0.054      0.00
   H2O             5.551e+01   9.998e-01     1.744    -0.000     0.000     18.48
Ca            9.004e-03
   Ca+2            4.589e-03   2.604e-03    -2.338    -2.584    -0.246    -18.27
   CaSO4           4.416e-03   4.424e-03    -2.355    -2.354     0.001     10.26
   CaHSO4+         1.068e-08   9.208e-09    -7.972    -8.036    -0.064     (0)  
   CaOH+           1.520e-09   1.311e-09    -8.818    -8.882    -0.064     (0)  
H(0)          2.931e-32
   H2              1.465e-32   1.472e-32   -31.834   -31.832     0.002     17.43
O(0)          2.684e-15
   O2              1.342e-15   1.348e-15   -14.872   -14.870     0.002     32.99
S(-2)         0.000e+00
   H2S             0.000e+00   0.000e+00   -95.667   -95.665     0.002     43.89
   HS-             0.000e+00   0.000e+00   -95.672   -95.738    -0.066     20.98
   S-2             0.000e+00   0.000e+00  -100.652  -100.901    -0.249     (0)  
   (H2S)2          0.000e+00   0.000e+00  -192.243  -192.241     0.002     26.89
S(6)          9.004e-03
   SO4-2           4.588e-03   2.582e-03    -2.338    -2.588    -0.250     15.63
   CaSO4           4.416e-03   4.424e-03    -2.355    -2.354     0.001     10.26
   HSO4-           3.410e-07   2.941e-07    -6.467    -6.531    -0.064     41.49
   CaHSO4+         1.068e-08   9.208e-09    -7.972    -8.036    -0.064     (0)  

------------------------------Saturation indices-------------------------------

  Phase               SI** log IAP   log K(348 K,   1 atm)

  Anhydrite         0.00     -5.17   -5.17  CaSO4
  Gypsum           -0.23     -5.17   -4.94  CaSO4:2H2O
  H2(g)           -28.71    -31.83   -3.12  H2
  H2O(g)           -0.42     -0.00    0.42  H2O
  H2S(g)          -94.28   -102.22   -7.94  H2S
  O2(g)           -11.77    -14.87   -3.10  O2
  Sulfur          -71.05    -67.17    3.88  S

**For a gas, SI = log10(fugacity). Fugacity = pressure * phi / 1 atm.
  For ideal gases, phi = 1.

------------------
End of simulation.
------------------

------------------------------------
Reading input data for simulation 3.
------------------------------------

----------------------------------
End of Run after 0.086786 Seconds.
----------------------------------

